21
Coordinates from ORCA-job 1_2_orca
  C   -1.85656051000000      0.15882030000000     -0.18216232000000
  C   -1.63941704000000     -0.65101364000000     -1.28968201000000
  C   -0.92338402000000     -1.82421000000000     -1.16271252000000
  C   -0.36526748000000     -2.16908673000000      0.05271950000000
  C   -1.36611374000000     -0.19272784000000      1.11414743000000
  C   -0.55064769000000     -1.36287717000000      1.16885357000000
  H   -2.45285182000000      1.04126362000000     -0.31534566000000
  H   -2.08503163000000     -0.39259532000000     -2.23841574000000
  H   -0.82440405000000     -2.48476058000000     -2.00631337000000
  H   -0.08542214000000     -1.64959089000000      2.09369346000000
  H   0.19118126000000     -3.08789440000000      0.14638624000000
  Pd  1.40985017000000      1.22206523000000      0.03647206000000
  O   2.41451958000000      0.73523602000000     -1.69246800000000
  O   2.61005932000000     -0.43538535000000      0.10460104000000
  O   0.32084786000000      2.92422991000000     -0.07420684000000
  C   0.16560347000000      2.97472742000000      1.19767516000000
  O   0.70142751000000      2.11765181000000      1.89108410000000
  H   -1.69290346000000      0.51227899000000      2.24560840000000
  C   2.90546827000000     -0.26590080000000     -1.10462542000000
  H   3.59305644000000     -0.94600975000000     -1.61048306000000
  H   -0.47007002000000      3.77446193000000      1.62530346000000
