21
autodE path point 0. E = none charge = 1 mult = 1 
Sc    1.69148  -1.47736  -1.54143
C     0.53759  -0.77390   0.25469
N    -0.44476  -1.41618   0.91369
C    -0.93745  -0.64583   1.92857
C    -0.24356   0.51473   1.90574
N     0.65182   0.41381   0.87901
C     1.56466   1.48424   0.51834
H     2.03512   1.88367   1.41347
H     1.03331   2.28042   0.00126
H     2.34836   1.10255  -0.13211
C    -0.95510  -2.74249   0.61366
H    -0.29603  -3.24467  -0.09002
H    -1.94968  -2.67708   0.17754
H    -0.99706  -3.33574   1.52404
H    -1.72669  -0.97534   2.58256
H    -0.31604   1.38461   2.53599
C    -0.39662   1.64085  -2.69436
H    -0.67563   1.10695  -3.59866
H    -0.83342   2.63557  -2.72231
H    -0.77758   1.10882  -1.82420
H     0.68730   1.73239  -2.64548
21
autodE path point 1. E = none charge = 1 mult = 1 
Sc    1.60575  -1.41561  -1.56890
C     0.46649  -0.71295   0.23838
N    -0.46503  -1.40398   0.92127
C    -0.88477  -0.70292   2.01695
C    -0.22460   0.47883   1.99394
N     0.62159   0.43953   0.92106
C     1.51011   1.53322   0.57012
H     1.86292   2.06280   1.45229
H     1.00375   2.24893  -0.07306
H     2.38962   1.15343   0.05500
C    -0.98343  -2.72150   0.58952
H    -0.42801  -3.14704  -0.24246
H    -2.03166  -2.65494   0.30693
H    -0.87775  -3.38567   1.44422
H    -1.61029  -1.08364   2.71587
H    -0.29053   1.31085   2.67419
C    -0.36351   1.62601  -2.77635
H    -0.92392   1.18950  -3.60205
H    -0.53184   2.70615  -2.81000
H    -0.80105   1.25308  -1.84890
H     0.95620   1.22591  -2.97801
21
autodE path point 2. E = none charge = 1 mult = 1 
Sc    1.75052  -1.44287  -1.40453
C     0.38758  -0.64524   0.20830
N    -0.48918  -1.37857   0.91937
C    -0.83901  -0.73672   2.07475
C    -0.18222   0.44826   2.06655
N     0.59202   0.47042   0.93998
C     1.47030   1.57351   0.59651
H     1.71883   2.21305   1.44127
H     0.99975   2.20577  -0.15194
H     2.41666   1.21232   0.19928
C    -1.00806  -2.69061   0.56495
H    -0.54740  -3.04471  -0.35451
H    -2.08292  -2.63714   0.40685
H    -0.79133  -3.40672   1.35479
H    -1.51662  -1.15439   2.80049
H    -0.21751   1.24041   2.79506
C    -0.37674   1.65116  -2.82368
H    -1.12699   1.50065  -3.60473
H    -0.05625   2.68849  -2.91317
H    -0.87145   1.47613  -1.86919
H     0.77003   0.45680  -3.24640
21
autodE path point 3. E = none charge = 1 mult = 1 
Sc    1.64257  -1.22155  -1.52713
C     0.33848  -0.57284   0.20542
N    -0.47847  -1.36042   0.92918
C    -0.78917  -0.77296   2.12425
C    -0.13809   0.41508   2.14531
N     0.56774   0.50947   0.97934
C     1.42661   1.63444   0.65892
H     1.53146   2.37207   1.45213
H     1.02323   2.16766  -0.19752
H     2.43314   1.29900   0.41645
C    -0.98532  -2.67109   0.55067
H    -0.60016  -2.95927  -0.42480
H    -2.07127  -2.64809   0.49685
H    -0.67248  -3.42154   1.27389
H    -1.42454  -1.23130   2.86392
H    -0.13712   1.15633   2.92640
C    -0.25625   1.64707  -2.88473
H    -1.00081   1.70645  -3.69025
H     0.33428   2.55891  -2.98502
H    -0.82845   1.67767  -1.95851
H     0.08464  -0.28509  -3.35477
21
autodE path point 4. E = none charge = 1 mult = 1 
Sc    1.26991  -0.85302  -1.80439
C     0.29335  -0.50603   0.20807
N    -0.46244  -1.34635   0.93821
C    -0.72463  -0.82038   2.17315
C    -0.07957   0.36965   2.22514
N     0.52941   0.55054   1.01567
C     1.37170   1.69658   0.72190
H     1.31388   2.50237   1.45084
H     1.07746   2.13875  -0.22605
H     2.41481   1.39111   0.65933
C    -0.95777  -2.65447   0.53631
H    -0.66662  -2.86880  -0.48922
H    -2.04311  -2.67634   0.60053
H    -0.54143  -3.43142   1.17460
H    -1.31466  -1.31999   2.92372
H    -0.02268   1.05511   3.05377
C    -0.05733   1.59452  -2.92701
H    -0.70170   1.66527  -3.81263
H     0.62140   2.45063  -3.03101
H    -0.71584   1.79786  -2.07656
H    -0.60410  -0.73558  -3.31438
21
autodE path point 5. E = none charge = 1 mult = 1 
Sc    0.88889  -0.72445  -1.92625
C     0.17867  -0.41139   0.20320
N    -0.47684  -1.32271   0.94498
C    -0.56852  -0.91731   2.24782
C     0.03626   0.29246   2.31404
N     0.45009   0.60462   1.04713
C     1.22798   1.79684   0.75512
H     0.89572   2.63824   1.35944
H     1.10359   2.09741  -0.28128
H     2.29002   1.62669   0.92223
C    -0.97974  -2.61570   0.50614
H    -0.92282  -2.70006  -0.57632
H    -2.02410  -2.72281   0.78961
H    -0.39734  -3.42628   0.93988
H    -1.03585  -1.50097   3.02361
H     0.20604   0.90900   3.18109
C     0.13386   1.55401  -2.97244
H    -0.41852   1.52578  -3.92022
H     0.93412   2.28633  -3.13534
H    -0.56406   1.98556  -2.24571
H    -0.95742  -0.97528  -3.17675
21
autodE path point 6. E = none charge = 1 mult = 1 
Sc    0.31964  -0.36645  -2.08395
C     0.11613  -0.35340   0.20096
N    -0.46476  -1.31364   0.94353
C    -0.46454  -0.97586   2.26709
C     0.13186   0.23532   2.35675
N     0.47508   0.59590   1.08434
C     1.15514   1.83815   0.76221
H     0.65842   2.67072   1.25438
H     1.11969   2.01675  -0.30950
H     2.19357   1.80038   1.08526
C    -1.00751  -2.56363   0.43579
H    -1.14437  -2.50642  -0.64250
H    -1.97992  -2.75074   0.88449
H    -0.34103  -3.39101   0.67115
H    -0.88639  -1.60447   3.03283
H     0.32606   0.85626   3.21477
C     0.19416   1.56325  -2.95042
H    -0.27161   1.46880  -3.94099
H     1.14529   2.08843  -3.09899
H    -0.45523   2.23315  -2.37277
H    -0.81965  -1.54149  -2.79443
