27
Coordinates from ORCA-job 4_12_orca
  Pd  -1.97327469000000     -1.54517043000000      0.40176737000000
  Cl  -3.29634427000000     -3.29931373000000     -0.29520147000000
  Cl  -0.51250908000000     -4.60616142000000      1.00733492000000
  Cl  -4.04744683000000     -0.50773588000000      1.13752045000000
  N   -0.98218214000000     -0.04516319000000      1.39221981000000
  C   -1.31411317000000      0.49954227000000      2.55500373000000
  C   -0.78887762000000      1.72998499000000      2.97956681000000
  C   0.08126474000000      2.39451164000000      2.15593547000000
  C   -0.06935954000000      0.54861932000000      0.61090415000000
  C   0.46501449000000      1.80296105000000      0.94981853000000
  H   0.50205231000000      3.35659186000000      2.43395584000000
  H   -2.03023279000000     -0.02712194000000      3.18230240000000
  H   -1.10896966000000      2.16119933000000      3.91849077000000
  C   0.31851795000000     -0.14798348000000     -0.57957179000000
  C   1.38535020000000      2.43767111000000      0.05907143000000
  C   1.73412211000000      1.83546531000000     -1.09097792000000
  C   1.23239870000000      0.53069638000000     -1.43268553000000
  H   1.79608045000000      3.40707489000000      0.33484858000000
  H   2.43241037000000      2.32613698000000     -1.77138016000000
  C   -0.24221631000000     -1.42462968000000     -0.87487453000000
  C   1.66930319000000     -0.07907720000000     -2.62529384000000
  C   0.22705473000000     -1.97830106000000     -2.06720959000000
  C   1.16267274000000     -1.32991573000000     -2.92140309000000
  H   2.36877488000000      0.44010576000000     -3.28119964000000
  H   1.52806592000000     -1.80609415000000     -3.84007529000000
  H   -0.40455674000000     -3.74887906000000      0.10128050000000
  H   -0.13157316000000     -2.92390279000000     -2.44038124000000
