27
Coordinates from ORCA-job 4_13_orca
  Pd  -1.97210114000000     -1.53860721000000      0.39300800000000
  Cl  -3.29648858000000     -3.29789388000000     -0.29551706000000
  Cl  -0.52095043000000     -4.59518329000000      1.01319526000000
  Cl  -4.04018146000000     -0.49534989000000      1.12704663000000
  N   -0.97942355000000     -0.04821228000000      1.39151885000000
  C   -1.31389437000000      0.49441706000000      2.55559205000000
  C   -0.78685670000000      1.72507545000000      2.98045418000000
  C   0.08057478000000      2.39027304000000      2.15711353000000
  C   -0.06783283000000      0.54612833000000      0.61128837000000
  C   0.46513877000000      1.80117739000000      0.95021820000000
  H   0.50058905000000      3.35428780000000      2.43328932000000
  H   -2.03083952000000     -0.03082411000000      3.18165423000000
  H   -1.10711506000000      2.15525611000000      3.92024249000000
  C   0.31903946000000     -0.14953836000000     -0.57942462000000
  C   1.38317728000000      2.43641428000000      0.05672792000000
  C   1.73070298000000      1.83516487000000     -1.09016708000000
  C   1.23227516000000      0.52925831000000     -1.43292299000000
  H   1.79230399000000      3.40756199000000      0.33452974000000
  H   2.42799321000000      2.32639854000000     -1.77362558000000
  C   -0.24131214000000     -1.42542909000000     -0.87537462000000
  C   1.66684751000000     -0.07968246000000     -2.62575350000000
  C   0.22846561000000     -1.98099303000000     -2.06677975000000
  C   1.16308938000000     -1.33027670000000     -2.92044780000000
  H   2.36650738000000      0.44136631000000     -3.28139203000000
  H   1.52667451000000     -1.80613540000000     -3.83913683000000
  H   -0.39979128000000     -3.73458307000000      0.11238374000000
  H   -0.12544694000000     -2.92897362000000     -2.43778989000000
