27
Coordinates from ORCA-job 4_1_orca
  Pd  -2.02107665000000     -1.61572052000000      0.52774168000000
  Cl  -3.29479856000000     -3.31536183000000     -0.31270181000000
  Cl  -0.38272165000000     -4.78814842000000      0.99015180000000
  Cl  -4.11296685000000     -0.66694008000000      1.26604922000000
  N   -1.02696946000000     -0.01059283000000      1.40751613000000
  C   -1.33463975000000      0.55594738000000      2.56553560000000
  C   -0.80842943000000      1.79337649000000      2.95558305000000
  C   0.08070278000000      2.42790561000000      2.15221284000000
  C   -0.08793307000000      0.57251446000000      0.59750951000000
  C   0.48231967000000      1.84759011000000      0.94802752000000
  H   0.51754643000000      3.38488344000000      2.44259140000000
  H   -2.00660498000000      0.02346278000000      3.16561822000000
  H   -1.13134354000000      2.22741901000000      3.89906071000000
  C   0.33385738000000     -0.11086108000000     -0.59376328000000
  C   1.41796936000000      2.44135383000000      0.06677942000000
  C   1.76593959000000      1.84058965000000     -1.07461684000000
  C   1.26369248000000      0.56181585000000     -1.46587828000000
  H   1.83723973000000      3.39873607000000      0.33755626000000
  H   2.47764263000000      2.31412318000000     -1.74146674000000
  C   -0.26520908000000     -1.42073460000000     -0.84649896000000
  C   1.65719194000000     -0.10939820000000     -2.59338447000000
  C   0.23052309000000     -1.94101419000000     -2.09915032000000
  C   1.18497845000000     -1.29283595000000     -2.93237461000000
  H   2.38899422000000      0.41824971000000     -3.27432483000000
  H   1.53133192000000     -1.81181440000000     -3.83997620000000
  H   -0.47722253000000     -3.85018664000000     -0.08385101000000
  H   -0.21680726000000     -2.87392080000000     -2.46530184000000
