27
Coordinates from ORCA-job 4_2_orca
  Pd  -1.99001718000000     -1.60523483000000      0.46875854000000
  Cl  -3.29636122000000     -3.30424404000000     -0.29494856000000
  Cl  -0.44644469000000     -4.65425600000000      0.93302052000000
  Cl  -4.09881382000000     -0.59619984000000      1.21229228000000
  N   -1.01567469000000     -0.02727135000000      1.40566039000000
  C   -1.31362778000000      0.54087136000000      2.55726390000000
  C   -0.80878636000000      1.76202067000000      2.97422282000000
  C   0.08711689000000      2.42469906000000      2.14913281000000
  C   -0.08001011000000      0.56914324000000      0.61065924000000
  C   0.47011880000000      1.82240808000000      0.94577184000000
  H   0.51116382000000      3.37030329000000      2.43868883000000
  H   -2.02008100000000      0.00035123000000      3.17903242000000
  H   -1.12104990000000      2.20117161000000      3.90332553000000
  C   0.33019417000000     -0.13137786000000     -0.58953875000000
  C   1.40399075000000      2.44695587000000      0.07276296000000
  C   1.75983104000000      1.83686457000000     -1.09682168000000
  C   1.24255419000000      0.55773959000000     -1.44015467000000
  H   1.82014482000000      3.39927990000000      0.33535667000000
  H   2.45760150000000      2.31889455000000     -1.75089719000000
  C   -0.26356855000000     -1.43436682000000     -0.85731496000000
  C   1.69921650000000     -0.05987552000000     -2.62241759000000
  C   0.22878321000000     -1.95399951000000     -2.07612692000000
  C   1.16192795000000     -1.33872187000000     -2.94542313000000
  H   2.37053675000000      0.42030827000000     -3.26806604000000
  H   1.53565609000000     -1.80499295000000     -3.84157851000000
  H   -0.44200477000000     -3.86819842000000      0.05468729000000
  H   -0.17894366000000     -2.89153447000000     -2.45872410000000
