27
Coordinates from ORCA-job 4_3_orca
  Pd  -1.99359237000000     -1.59003739000000      0.46767820000000
  Cl  -3.29650130000000     -3.30700794000000     -0.29905550000000
  Cl  -0.44875889000000     -4.67072786000000      0.96197178000000
  Cl  -4.08879281000000     -0.59099226000000      1.20539729000000
  N   -1.00344689000000     -0.02604049000000      1.39721849000000
  C   -1.31627823000000      0.53497113000000      2.55370449000000
  C   -0.80339796000000      1.76288264000000      2.97318671000000
  C   0.08493593000000      2.41916547000000      2.15107894000000
  C   -0.07995663000000      0.56674362000000      0.61026649000000
  C   0.46738619000000      1.81735600000000      0.94774330000000
  H   0.51029324000000      3.37056090000000      2.43876237000000
  H   -2.02309845000000     -0.00334887000000      3.18109551000000
  H   -1.12031578000000      2.19762298000000      3.90583844000000
  C   0.32127368000000     -0.13525437000000     -0.58443095000000
  C   1.40290987000000      2.44226585000000      0.06618596000000
  C   1.75508590000000      1.83846136000000     -1.09011520000000
  C   1.23919517000000      0.54908978000000     -1.43571272000000
  H   1.81930871000000      3.40303202000000      0.33618550000000
  H   2.45761855000000      2.32111509000000     -1.75480407000000
  C   -0.24908367000000     -1.42395224000000     -0.86846094000000
  C   1.69077913000000     -0.06759150000000     -2.62381368000000
  C   0.22133287000000     -1.96071705000000     -2.07372709000000
  C   1.16217484000000     -1.33409006000000     -2.93411169000000
  H   2.37402448000000      0.42442779000000     -3.27231005000000
  H   1.53383796000000     -1.80604042000000     -3.84187531000000
  H   -0.44053535000000     -3.83921917000000      0.03657992000000
  H   -0.17354701000000     -2.89186660000000     -2.45552853000000
