27
Coordinates from ORCA-job 4_4_orca
  Pd  -1.96360131000000     -1.54643269000000      0.39205807000000
  Cl  -3.29764710000000     -3.29819432000000     -0.28814114000000
  Cl  -0.52400050000000     -4.56980737000000      0.98026782000000
  Cl  -4.05014615000000     -0.49663398000000      1.12921740000000
  N   -0.97397697000000     -0.04502700000000      1.38586601000000
  C   -1.31484280000000      0.49291112000000      2.55601936000000
  C   -0.78185230000000      1.73250805000000      2.97892211000000
  C   0.07747445000000      2.39080940000000      2.15688656000000
  C   -0.07145567000000      0.54339788000000      0.61321979000000
  C   0.46077021000000      1.79942125000000      0.95140689000000
  H   0.50286652000000      3.35681590000000      2.43385309000000
  H   -2.03213419000000     -0.02914496000000      3.18686819000000
  H   -1.10855857000000      2.15922060000000      3.92038355000000
  C   0.30986091000000     -0.15698276000000     -0.57289623000000
  C   1.38481323000000      2.43365414000000      0.05303695000000
  C   1.73016919000000      1.84125092000000     -1.08520380000000
  C   1.22926287000000      0.52552291000000     -1.43232583000000
  H   1.79544969000000      3.40975200000000      0.33578147000000
  H   2.43336285000000      2.32945911000000     -1.77539622000000
  C   -0.23755232000000     -1.42173027000000     -0.87850792000000
  C   1.66358926000000     -0.08935843000000     -2.62599516000000
  C   0.22199891000000     -1.98612825000000     -2.06243506000000
  C   1.16270718000000     -1.31832466000000     -2.91498194000000
  H   2.37602224000000      0.44820385000000     -3.28872341000000
  H   1.53273703000000     -1.80757177000000     -3.84735090000000
  H   -0.39943166000000     -3.77349886000000      0.13796620000000
  H   -0.12416443000000     -2.92276817000000     -2.44015829000000
