27
Coordinates from ORCA-job 4_5_orca
  Pd  -1.98480198000000     -1.57725685000000      0.44551392000000
  Cl  -3.29683713000000     -3.30442467000000     -0.29585650000000
  Cl  -0.47081223000000     -4.64114804000000      0.96733436000000
  Cl  -4.07746546000000     -0.56333582000000      1.18306895000000
  N   -0.99480925000000     -0.03160544000000      1.39389108000000
  C   -1.31585751000000      0.52264333000000      2.55438298000000
  C   -0.79708293000000      1.75397984000000      2.97486776000000
  C   0.08274897000000      2.41085430000000      2.15278115000000
  C   -0.07746500000000      0.55990098000000      0.61113210000000
  C   0.46544705000000      1.81209932000000      0.94881710000000
  H   0.50811646000000      3.36653224000000      2.43732345000000
  H   -2.02574683000000     -0.01090971000000      3.18278749000000
  H   -1.11686974000000      2.18636723000000      3.91010162000000
  C   0.31792860000000     -0.14162297000000     -0.58105012000000
  C   1.39760574000000      2.43974176000000      0.06233198000000
  C   1.74778281000000      1.83927898000000     -1.08867567000000
  C   1.23628401000000      0.54218233000000     -1.43472002000000
  H   1.81231563000000      3.40500165000000      0.33606708000000
  H   2.45050920000000      2.32356072000000     -1.76083963000000
  C   -0.24570383000000     -1.42330098000000     -0.87140571000000
  C   1.68280977000000     -0.07397140000000     -2.62445307000000
  C   0.22152809000000     -1.96816507000000     -2.07041739000000
  C   1.16233087000000     -1.32946922000000     -2.92850476000000
  H   2.37461003000000      0.43139656000000     -3.27712081000000
  H   1.53351528000000     -1.80648926000000     -3.84348021000000
  H   -0.42848785000000     -3.81995653000000      0.06629626000000
  H   -0.15907297000000     -2.90092385000000     -2.45102351000000
