27
Coordinates from ORCA-job 4_6_orca
  Pd  -1.94974108000000     -1.49474078000000      0.33214769000000
  Cl  -3.29444864000000     -3.29299330000000     -0.29211596000000
  Cl  -0.57844425000000     -4.56865113000000      1.08082092000000
  Cl  -4.00541253000000     -0.42498371000000      1.07122368000000
  N   -0.96314002000000     -0.06521001000000      1.39123538000000
  C   -1.31074055000000      0.46506369000000      2.55386948000000
  C   -0.77754802000000      1.69227922000000      2.98728976000000
  C   0.08069893000000      2.37292265000000      2.15845618000000
  C   -0.05602015000000      0.53172664000000      0.60857549000000
  C   0.46336163000000      1.78820733000000      0.95050140000000
  H   0.49354051000000      3.34220704000000      2.42856094000000
  H   -2.03870501000000     -0.05083720000000      3.18405046000000
  H   -1.09764466000000      2.12527986000000      3.93151242000000
  C   0.31761055000000     -0.15681927000000     -0.57653845000000
  C   1.36456122000000      2.43822753000000      0.06161432000000
  C   1.71550948000000      1.82727787000000     -1.10045821000000
  C   1.22322265000000      0.50847623000000     -1.42649880000000
  H   1.77264744000000      3.41004518000000      0.33325176000000
  H   2.40723499000000      2.33139984000000     -1.78753781000000
  C   -0.23760767000000     -1.42430497000000     -0.88128433000000
  C   1.64667080000000     -0.08911013000000     -2.62529965000000
  C   0.23445845000000     -1.99140223000000     -2.06113301000000
  C   1.16162443000000     -1.32938437000000     -2.90796704000000
  H   2.36451523000000      0.45617609000000     -3.29054597000000
  H   1.52076690000000     -1.80491488000000     -3.83583051000000
  H   -0.36635184000000     -3.63605742000000      0.13821268000000
  H   -0.09064424000000     -2.95832387000000     -2.42555055000000
