38
Coordinates from ORCA-job 4_13_orca
  C   -2.16163286000000     -0.11798857000000      0.69548739000000
  C   -1.85373996000000      1.03210453000000      1.41957111000000
  C   -3.52914096000000     -0.44979938000000      0.68914157000000
  C   -4.52550569000000      0.42942476000000      1.10131684000000
  C   -4.17508646000000      1.63455839000000      1.69267274000000
  C   -2.83719489000000      1.93986962000000      1.81670595000000
  H   -1.90779872000000     -2.01264167000000     -1.61576846000000
  H   -3.83453630000000     -1.38395285000000      0.24806676000000
  H   -2.57115678000000      2.81509538000000      2.38918825000000
  H   -5.56850903000000      0.16274520000000      0.98091406000000
  H   -4.93539381000000      2.34541061000000      1.98244091000000
  C   -0.43920379000000      1.48731319000000      1.68606967000000
  C   0.67852731000000      0.46600849000000      1.91522806000000
  H   -0.51847869000000      2.10399902000000      2.56763773000000
  H   -0.09581956000000      2.18603500000000      0.92028586000000
  C   1.71495325000000      0.59787257000000      0.85760379000000
  H   0.27049790000000     -0.53321480000000      1.94047673000000
  H   1.12488493000000      0.64852878000000      2.88999072000000
  C   1.57732399000000     -0.05478374000000     -0.36706589000000
  C   2.56723137000000      0.16869053000000     -1.32987592000000
  C   3.59142196000000      1.09943944000000     -1.12087445000000
  C   2.82019226000000      1.41442122000000      1.09866998000000
  C   3.70297393000000      1.76493085000000      0.08935705000000
  H   2.56684793000000     -0.34282938000000     -2.27972233000000
  H   4.31865638000000      1.31785354000000     -1.89945321000000
  H   2.95149310000000      1.86785487000000      2.07993317000000
  H   4.52087746000000      2.45390886000000      0.28228316000000
  Pd  0.06688162000000     -1.33015594000000     -0.53481049000000
  Br  -1.78436804000000     -3.28744551000000     -0.84058325000000
  P   1.44768456000000     -2.94642788000000     -0.01405112000000
  H   1.04442450000000     -3.56441814000000      1.17933751000000
  C   0.26975347000000     -1.37444162000000     -3.82584233000000
  O   1.38473883000000     -1.75026198000000     -4.16945603000000
  O   -0.59289066000000     -2.01907656000000     -3.12329855000000
  O   -0.20759136000000     -0.14725348000000     -4.27175984000000
  H   2.77343291000000     -2.74893313000000      0.34001895000000
  H   1.57843177000000     -4.11305833000000     -0.76410999000000
  H   0.55365990000000      0.24663629000000     -4.69775173000000
