38
Coordinates from ORCA-job 4_14_orca
  C   -2.15323974000000     -0.12246085000000      0.69835627000000
  C   -1.85116750000000      1.03936463000000      1.40794294000000
  C   -3.52206790000000     -0.44638479000000      0.68283899000000
  C   -4.52514384000000      0.42533405000000      1.10541150000000
  C   -4.17865416000000      1.63711050000000      1.68422517000000
  C   -2.84004571000000      1.93128989000000      1.82462259000000
  H   -1.91130471000000     -2.01220331000000     -1.62309032000000
  H   -3.83695687000000     -1.38897261000000      0.24504802000000
  H   -2.56810189000000      2.82155155000000      2.38646587000000
  H   -5.57082096000000      0.16251794000000      0.98003607000000
  H   -4.93733272000000      2.34619293000000      1.98516059000000
  C   -0.43994182000000      1.49469808000000      1.69209452000000
  C   0.67712931000000      0.46665315000000      1.91764645000000
  H   -0.51696962000000      2.10404546000000      2.57606888000000
  H   -0.09787279000000      2.18833225000000      0.92061197000000
  C   1.72170769000000      0.59480644000000      0.86148297000000
  H   0.26949729000000     -0.53719648000000      1.94173933000000
  H   1.12802650000000      0.64913553000000      2.89156435000000
  C   1.58171841000000     -0.05549241000000     -0.36543304000000
  C   2.56791204000000      0.17060586000000     -1.33223894000000
  C   3.59017085000000      1.10219933000000     -1.12234921000000
  C   2.81736291000000      1.42407399000000      1.09783189000000
  C   3.70687072000000      1.75892225000000      0.09151892000000
  H   2.56482475000000     -0.34548823000000     -2.28243807000000
  H   4.31750787000000      1.31600562000000     -1.89975206000000
  H   2.95144665000000      1.86556408000000      2.07989603000000
  H   4.51983913000000      2.45449941000000      0.28175319000000
  Pd  0.04830479000000     -1.32230210000000     -0.53458940000000
  Br  -1.78455370000000     -3.29055203000000     -0.83937009000000
  P   1.45030294000000     -2.94921669000000     -0.01279187000000
  H   1.04482973000000     -3.56530402000000      1.18034682000000
  C   0.26136015000000     -1.37565460000000     -3.83282394000000
  O   1.38479115000000     -1.74689724000000     -4.16723699000000
  O   -0.59438981000000     -2.01612712000000     -3.12113147000000
  O   -0.20019423000000     -0.15628765000000     -4.26573931000000
  H   2.78046993000000     -2.74874297000000      0.33888488000000
  H   1.57863364000000     -4.11519350000000     -0.76810572000000
  H   0.55258241000000      0.24705168000000     -4.69648897000000
