38
Coordinates from ORCA-job 4_16_orca
  C   -2.15444249000000     -0.13759749000000      0.69295151000000
  C   -1.85555239000000      1.03450724000000      1.38784692000000
  C   -3.53513356000000     -0.44735131000000      0.68001447000000
  C   -4.54329977000000      0.41461995000000      1.13986240000000
  C   -4.19252877000000      1.62796043000000      1.70134586000000
  C   -2.84932284000000      1.89221407000000      1.88340748000000
  H   -1.93790180000000     -1.97951717000000     -1.50339689000000
  H   -3.87527422000000     -1.40881573000000      0.29305606000000
  H   -2.56555563000000      2.81929616000000      2.38945388000000
  H   -5.59453490000000      0.15669962000000      1.03090818000000
  H   -4.94286134000000      2.33940299000000      2.02083935000000
  C   -0.44720215000000      1.50742124000000      1.64520307000000
  C   0.66103705000000      0.46576054000000      1.89650672000000
  H   -0.48710873000000      2.16235108000000      2.50631263000000
  H   -0.12938260000000      2.14982620000000      0.81664320000000
  C   1.73231365000000      0.57994552000000      0.85866835000000
  H   0.25078712000000     -0.54225842000000      1.92531670000000
  H   1.10360791000000      0.64936314000000      2.87694590000000
  C   1.60591039000000     -0.05472150000000     -0.37474625000000
  C   2.58636638000000      0.16433718000000     -1.34698567000000
  C   3.60279084000000      1.09717423000000     -1.12274616000000
  C   2.81287439000000      1.42478833000000      1.09083047000000
  C   3.72271135000000      1.72532109000000      0.09771052000000
  H   2.58632723000000     -0.36303003000000     -2.28830045000000
  H   4.32985038000000      1.30247418000000     -1.89746631000000
  H   2.92554162000000      1.86857587000000      2.06809115000000
  H   4.51506036000000      2.44256115000000      0.28315508000000
  Pd  0.06591106000000     -1.29779682000000     -0.57136618000000
  Br  -1.79599603000000     -3.28031638000000     -0.85922143000000
  P   1.44941597000000     -2.95769482000000      0.01806993000000
  H   1.01068918000000     -3.55991966000000      1.20810727000000
  C   0.28101926000000     -1.37422045000000     -3.84688064000000
  O   1.40961585000000     -1.71175827000000     -4.17009338000000
  O   -0.54602351000000     -1.94653538000000     -3.11319154000000
  O   -0.16034037000000     -0.14847948000000     -4.29173384000000
  H   2.77625266000000     -2.74631733000000      0.38526061000000
  H   1.59131609000000     -4.12123068000000     -0.74634800000000
  H   0.57633435000000      0.25495983000000     -4.75609256000000
