38
Coordinates from ORCA-job 4_19_orca
  C   -2.15944248000000     -0.15203326000000      0.68275225000000
  C   -1.86389632000000      1.03431256000000      1.37489352000000
  C   -3.54813133000000     -0.46164394000000      0.68484112000000
  C   -4.55280377000000      0.39268014000000      1.17455570000000
  C   -4.20159527000000      1.61423120000000      1.72991310000000
  C   -2.85322075000000      1.86619434000000      1.92599765000000
  H   -1.92595917000000     -1.96322724000000     -1.34741861000000
  H   -3.90845104000000     -1.42105889000000      0.32218929000000
  H   -2.55877964000000      2.79759343000000      2.41104808000000
  H   -5.61101181000000      0.14128327000000      1.09342269000000
  H   -4.94773805000000      2.33586792000000      2.05503116000000
  C   -0.44931443000000      1.52079003000000      1.58192990000000
  C   0.64095740000000      0.46417494000000      1.87450668000000
  H   -0.46107040000000      2.23131471000000      2.41808072000000
  H   -0.15012649000000      2.10049353000000      0.69847601000000
  C   1.73572274000000      0.56213186000000      0.85602682000000
  H   0.22264340000000     -0.54399859000000      1.90579192000000
  H   1.07002191000000      0.65459474000000      2.86115476000000
  C   1.62997858000000     -0.07252802000000     -0.37918129000000
  C   2.59936583000000      0.15189460000000     -1.36058957000000
  C   3.61408850000000      1.07962249000000     -1.12725128000000
  C   2.79956344000000      1.42716179000000      1.08315516000000
  C   3.73609859000000      1.69764382000000      0.10353416000000
  H   2.59834942000000     -0.38239786000000     -2.30355959000000
  H   4.34106278000000      1.28761039000000     -1.89932957000000
  H   2.88939274000000      1.88367694000000      2.05871742000000
  H   4.52002023000000      2.41792161000000      0.28915891000000
  Pd  0.07026535000000     -1.27500499000000     -0.60369582000000
  Br  -1.83131895000000     -3.24862572000000     -0.88545768000000
  P   1.44701675000000     -2.95582213000000      0.04695937000000
  H   0.97180322000000     -3.55328794000000      1.23516418000000
  C   0.30503216000000     -1.34094752000000     -3.84316627000000
  O   1.44947069000000     -1.68658539000000     -4.18447405000000
  O   -0.50427917000000     -1.87398761000000     -3.08540277000000
  O   -0.12524707000000     -0.12029201000000     -4.33418881000000
  H   2.77945987000000     -2.74101001000000      0.44132490000000
  H   1.60313352000000     -4.12716508000000     -0.72063062000000
  H   0.60651132000000      0.25631457000000     -4.82649392000000
