38
Coordinates from ORCA-job 4_4_orca
  C   -2.02878264000000     -0.13331873000000      0.73034631000000
  C   -1.80029296000000      1.15655053000000      1.33339365000000
  C   -3.45234882000000     -0.37146919000000      0.49810592000000
  C   -4.48705107000000      0.42405978000000      1.01676443000000
  C   -4.18324526000000      1.71775289000000      1.50610224000000
  C   -2.86316978000000      1.95076495000000      1.83145237000000
  H   -2.22801694000000     -1.99441312000000     -2.18054998000000
  H   -3.76216820000000     -1.38364578000000      0.17035963000000
  H   -2.57418946000000      2.93504449000000      2.20671382000000
  H   -5.53150759000000      0.22266406000000      0.75524631000000
  H   -4.94685101000000      2.34914609000000      1.94299128000000
  C   -0.42820062000000      1.54576121000000      1.95408031000000
  C   0.76395711000000      0.44963482000000      2.02214021000000
  H   -0.54407306000000      1.91284915000000      3.00030872000000
  H   -0.11922101000000      2.35352689000000      1.30384494000000
  C   1.77142648000000      0.60583654000000      0.93584381000000
  H   0.35149682000000     -0.56008012000000      2.02918851000000
  H   1.27914913000000      0.62168022000000      2.96006930000000
  C   1.57663580000000      0.02678786000000     -0.32097589000000
  C   2.51852050000000      0.24701650000000     -1.33669450000000
  C   3.53975311000000      1.17669085000000     -1.13914724000000
  C   2.81804053000000      1.51572195000000      1.11487484000000
  C   3.73711170000000      1.77755456000000      0.10641532000000
  H   2.50481226000000     -0.33070022000000     -2.26391886000000
  H   4.28458506000000      1.33119786000000     -1.91123940000000
  H   3.07730776000000      1.78673508000000      2.13342353000000
  H   4.47134578000000      2.56607941000000      0.24696537000000
  Pd  -0.17480157000000     -1.26379271000000     -0.51593506000000
  Br  -1.65845588000000     -3.55146302000000     -0.64593284000000
  P   1.50382611000000     -2.98327341000000     -0.08888913000000
  H   1.18659491000000     -3.62162479000000      1.14560012000000
  C   0.16642982000000     -1.61839833000000     -3.91379728000000
  O   1.35984186000000     -1.76271565000000     -4.12253607000000
  O   -0.72087930000000     -2.23554393000000     -3.18247363000000
  O   -0.28326315000000     -0.23608549000000     -4.07975454000000
  H   2.84768120000000     -2.77834615000000      0.14496912000000
  H   1.55512155000000     -4.12068638000000     -0.90570460000000
  H   0.46657604000000      0.27503782000000     -4.47995005000000
