38
Coordinates from ORCA-job 4_5_orca
  C   -2.07557647000000     -0.08913479000000      0.70924865000000
  C   -1.81825586000000      1.08197249000000      1.39651934000000
  C   -3.48999116000000     -0.38014057000000      0.53045958000000
  C   -4.50953049000000      0.45794433000000      0.99936572000000
  C   -4.18658103000000      1.68586815000000      1.57219333000000
  C   -2.86412875000000      1.94339312000000      1.83913504000000
  H   -2.36255675000000     -1.88352514000000     -2.14885313000000
  H   -3.79386141000000     -1.38946481000000      0.27952896000000
  H   -2.59707084000000      2.94364391000000      2.17367741000000
  H   -5.54942955000000      0.23823762000000      0.77673810000000
  H   -4.95177258000000      2.32926272000000      1.97930587000000
  C   -0.43642046000000      1.52735705000000      1.92470865000000
  C   0.75912536000000      0.45496503000000      1.99673450000000
  H   -0.50858662000000      1.94226098000000      2.91068366000000
  H   -0.17320280000000      2.32815109000000      1.23816077000000
  C   1.76059284000000      0.62322541000000      0.91282667000000
  H   0.35899014000000     -0.54581569000000      2.01380691000000
  H   1.26515072000000      0.60785439000000      2.94709251000000
  C   1.57320548000000      0.05438634000000     -0.34853912000000
  C   2.54035610000000      0.24574624000000     -1.33900130000000
  C   3.57348780000000      1.17141580000000     -1.12638847000000
  C   2.85474871000000      1.45961012000000      1.12057072000000
  C   3.73851141000000      1.78215958000000      0.10065219000000
  H   2.55443493000000     -0.33352321000000     -2.24066554000000
  H   4.31706120000000      1.33240064000000     -1.90826152000000
  H   3.08425575000000      1.77702906000000      2.13390521000000
  H   4.45553566000000      2.58574466000000      0.24049107000000
  Pd  -0.06408772000000     -1.26201738000000     -0.56843162000000
  Br  -1.61504019000000     -3.63071984000000     -0.64522579000000
  P   1.47531511000000     -2.99155248000000     -0.06531582000000
  H   1.16366120000000     -3.61795997000000      1.16978439000000
  C   0.17023106000000     -1.57545786000000     -3.87247656000000
  O   1.40930125000000     -1.78207565000000     -4.14551745000000
  O   -0.65746211000000     -2.22080082000000     -3.22924715000000
  O   -0.25814112000000     -0.22905196000000     -4.12674480000000
  H   2.81707369000000     -2.79064232000000      0.18120171000000
  H   1.57571230000000     -4.12539657000000     -0.87247383000000
  H   0.46128585000000      0.27611814000000     -4.50909695000000
