38
Coordinates from ORCA-job 4_9_orca
  C   -2.08891350000000     -0.14479681000000      0.72607048000000
  C   -1.80664797000000      1.13981022000000      1.37177414000000
  C   -3.45737035000000     -0.44575587000000      0.63996875000000
  C   -4.47548452000000      0.39627119000000      1.06876642000000
  C   -4.18159873000000      1.67431067000000      1.58390364000000
  C   -2.83864973000000      1.98058825000000      1.75933678000000
  H   -1.84839111000000     -2.10703254000000     -1.88858258000000
  H   -3.76658918000000     -1.37177900000000      0.10636333000000
  H   -2.54657933000000      2.84964036000000      2.36498212000000
  H   -5.53301175000000      0.16682576000000      0.87291201000000
  H   -4.94385936000000      2.37542216000000      1.93388832000000
  C   -0.42271531000000      1.50885978000000      1.79429195000000
  C   0.69521136000000      0.47805300000000      1.98370816000000
  H   -0.57748300000000      1.99859471000000      2.80601069000000
  H   -0.04056234000000      2.27737103000000      1.14039803000000
  C   1.74500202000000      0.59591681000000      0.89707385000000
  H   0.29413560000000     -0.55677167000000      1.98168832000000
  H   1.20088386000000      0.65834420000000      2.93291752000000
  C   1.56965885000000     -0.08416881000000     -0.32517125000000
  C   2.53156371000000      0.19637065000000     -1.31927345000000
  C   3.55145884000000      1.12274705000000     -1.14130847000000
  C   2.79215037000000      1.50622423000000      1.10097243000000
  C   3.70891718000000      1.79347048000000      0.09786642000000
  H   2.49720418000000     -0.33285399000000     -2.30504176000000
  H   4.28539774000000      1.33085169000000     -1.91099800000000
  H   3.00302136000000      1.84907469000000      2.11346934000000
  H   4.53225097000000      2.47712993000000      0.27961754000000
  Pd  -0.16785248000000     -1.32352218000000     -0.46417081000000
  Br  -1.77373220000000     -3.29270400000000     -0.80626993000000
  P   1.47195196000000     -2.93866176000000     -0.07241978000000
  H   1.11572942000000     -3.58655268000000      1.13327425000000
  C   0.16409941000000     -1.41507404000000     -3.80835082000000
  O   1.34395704000000     -1.79774021000000     -4.16072246000000
  O   -0.70949943000000     -2.13115374000000     -3.12175331000000
  O   -0.26603797000000     -0.20980068000000     -4.17442692000000
  H   2.85848980000000     -2.75000934000000      0.23998010000000
  H   1.55047217000000     -4.12222304000000     -0.84583418000000
  H   0.52291080000000      0.24200119000000     -4.57734383000000
