9
Generated by autodE on: 2023-07-17. 
Pt   -0.56136  -0.68607   0.36937
Cl   -0.07766  -0.21515   2.58865
Cl   -2.44990  -1.87529   1.07712
Cl   -1.18188  -1.20975  -1.80893
C     0.71951   0.89909  -0.46106
H     1.35424   1.45496   0.23216
H     0.98609  -0.61131   0.13177
H     1.30455   0.68255  -1.35777
H    -0.09638   1.55496  -0.77014
