9
Coordinates from ORCA-job reaction-6-cineb10_optts_Compound_2_IRC_F
  Pt  -0.83145080409935     -0.81667732280843      0.43519084326814
  Cl  -0.22209158144984     -0.11738589481187      2.56416827184219
  Cl  -2.51992135665868     -2.08538175823897      1.20532207848947
  Cl  -1.23332450248308     -1.39089740262943     -1.77894409497395
  C   0.94414867334711      0.90584940595982     -0.48039910628158
  H   1.59005623611601      1.41950841951167      0.22431629284994
  H   0.95479017791420     -0.16152683328407     -0.16212498562227
  H   1.34877956184653      0.88815204002548     -1.48743733585932
  H   -0.02359141920747      1.40250592795363     -0.50316553229292
