21
Coordinates from ORCA-job 4_0_orca
  Sc  1.74286920000000     -1.45089663000000     -1.40925840000000
  C   0.38408018000000     -0.64304521000000      0.20821934000000
  N   -0.48392207000000     -1.38180696000000      0.91865030000000
  C   -0.82891249000000     -0.74106907000000      2.07195575000000
  C   -0.16740692000000      0.43637798000000      2.07503960000000
  N   0.58737640000000      0.46915342000000      0.94014796000000
  C   1.45551417000000      1.57309759000000      0.59180917000000
  H   1.68180722000000      2.23332996000000      1.42566702000000
  H   0.97946894000000      2.18392251000000     -0.17089915000000
  H   2.41599187000000      1.22675784000000      0.21822249000000
  C   -1.00342535000000     -2.69072380000000      0.56588276000000
  H   -0.54850716000000     -3.03514760000000     -0.35866203000000
  H   -2.08085879000000     -2.63226027000000      0.42549570000000
  H   -0.78115749000000     -3.40619306000000      1.35393348000000
  H   -1.50948503000000     -1.15608366000000      2.79552010000000
  H   -0.19756889000000      1.22322786000000      2.80867472000000
  C   -0.36722352000000      1.68520324000000     -2.81824083000000
  H   -1.06592537000000      1.52843742000000     -3.64769074000000
  H   -0.06976598000000      2.73257404000000     -2.88537409000000
  H   -0.90310431000000      1.51332456000000     -1.88855936000000
  H   0.76017861000000      0.33183343000000     -3.22054056000000
