21
Coordinates from ORCA-job 4_10_orca
  Sc  1.62595253000000     -1.19472746000000     -1.56853364000000
  C   0.42282706000000     -0.63113516000000      0.24722009000000
  N   -0.45331851000000     -1.37581176000000      0.94775479000000
  C   -0.80435504000000     -0.75723424000000      2.11137150000000
  C   -0.14291568000000      0.42385044000000      2.14118084000000
  N   0.58973943000000      0.48301364000000      0.99164136000000
  C   1.42338522000000      1.60998179000000      0.61365532000000
  H   1.50211456000000      2.29433205000000      1.45751692000000
  H   0.99550955000000      2.15046100000000     -0.22341217000000
  H   2.42417186000000      1.27408934000000      0.35146966000000
  C   -0.97715885000000     -2.66979086000000      0.55727160000000
  H   -0.58765602000000     -2.95383653000000     -0.41572610000000
  H   -2.06129148000000     -2.62775977000000      0.48931705000000
  H   -0.68930418000000     -3.42403432000000      1.28690778000000
  H   -1.47369681000000     -1.20219916000000      2.82837233000000
  H   -0.12587507000000      1.19833230000000      2.89330395000000
  C   -0.32543414000000      1.52889764000000     -2.92281122000000
  H   -1.07111327000000      1.69006985000000     -3.79661765000000
  H   0.55456090000000      2.16953623000000     -3.00565658000000
  H   -0.87264191000000      1.57237215000000     -1.94095044000000
  H   0.05658933000000      0.45605637000000     -3.04919222000000
