21
Coordinates from ORCA-job 4_1_orca
  Sc  1.72298583000000     -1.40283985000000     -1.43774029000000
  C   0.42006590000000     -0.65544004000000      0.20196395000000
  N   -0.48523117000000     -1.37515280000000      0.92519580000000
  C   -0.83511802000000     -0.74224781000000      2.08316798000000
  C   -0.16955403000000      0.42968719000000      2.10267983000000
  N   0.57677974000000      0.47812211000000      0.96206861000000
  C   1.45758919000000      1.60384418000000      0.56668824000000
  H   1.64537134000000      2.23317900000000      1.44330785000000
  H   0.98504177000000      2.17931390000000     -0.18320798000000
  H   2.41690217000000      1.22550201000000      0.23652466000000
  C   -1.00493042000000     -2.68343830000000      0.56357479000000
  H   -0.55607114000000     -3.02532424000000     -0.36839579000000
  H   -2.07869513000000     -2.63564066000000      0.43356245000000
  H   -0.76575564000000     -3.40872981000000      1.34460494000000
  H   -1.50077456000000     -1.16504708000000      2.80166382000000
  H   -0.18132070000000      1.21861619000000      2.82023882000000
  C   -0.33686575000000      1.57498955000000     -2.90930351000000
  H   -1.02696735000000      1.53806337000000     -3.64767073000000
  H   0.04267986000000      2.69118162000000     -2.89185643000000
  H   -0.86763183000000      1.50635585000000     -1.89319099000000
  H   0.54245630000000      0.41641453000000     -3.15448523000000
