21
Coordinates from ORCA-job 4_4_orca
  Sc  1.68527073000000     -1.31295226000000     -1.49736303000000
  C   0.42494349000000     -0.63461357000000      0.24753280000000
  N   -0.47178200000000     -1.37164416000000      0.92579568000000
  C   -0.82452552000000     -0.75030168000000      2.09083123000000
  C   -0.15448107000000      0.42649858000000      2.11750566000000
  N   0.58813329000000      0.48610400000000      0.96865921000000
  C   1.43843441000000      1.60446065000000      0.59424670000000
  H   1.57713537000000      2.25411669000000      1.45622162000000
  H   0.98600013000000      2.18490023000000     -0.22454470000000
  H   2.42146083000000      1.23818632000000      0.28375833000000
  C   -0.99326726000000     -2.67736109000000      0.55959897000000
  H   -0.57484980000000     -2.99738433000000     -0.38887816000000
  H   -2.07823354000000     -2.63910795000000      0.45547714000000
  H   -0.73206431000000     -3.41035026000000      1.31967409000000
  H   -1.48707109000000     -1.19235480000000      2.82263452000000
  H   -0.15295909000000      1.21051520000000      2.86095808000000
  C   -0.24996509000000      1.49108926000000     -2.91042899000000
  H   -1.01923029000000      1.56615271000000     -3.71940240000000
  H   0.24703316000000      2.48341396000000     -2.92657645000000
  H   -0.79894386000000      1.49985753000000     -1.97116157000000
  H   0.17195059000000      0.54480092000000     -3.06702807000000
