21
Coordinates from ORCA-job 4_6_orca
  Sc  1.65463884000000     -1.23643024000000     -1.54237931000000
  C   0.42303985000000     -0.63085049000000      0.25271490000000
  N   -0.45454981000000     -1.37291102000000      0.94574933000000
  C   -0.81232383000000     -0.74546376000000      2.10888494000000
  C   -0.15167764000000      0.42970062000000      2.13396476000000
  N   0.59822434000000      0.47969584000000      0.98815548000000
  C   1.42441169000000      1.61191503000000      0.60705564000000
  H   1.51924615000000      2.27308072000000      1.45644201000000
  H   0.99859504000000      2.16838072000000     -0.23076530000000
  H   2.41306278000000      1.26004712000000      0.32891322000000
  C   -0.98429078000000     -2.67252812000000      0.55674382000000
  H   -0.58627648000000     -2.97149830000000     -0.41202236000000
  H   -2.06981101000000     -2.63543825000000      0.47711699000000
  H   -0.70207256000000     -3.41402545000000      1.29777749000000
  H   -1.47267511000000     -1.20557613000000      2.82502912000000
  H   -0.13055378000000      1.19946430000000      2.88840380000000
  C   -0.36281575000000      1.54813675000000     -2.94856652000000
  H   -1.02186494000000      1.60778393000000     -3.76077983000000
  H   0.51856187000000      2.24374569000000     -2.98400449000000
  H   -0.80211732000000      1.48606475000000     -1.97369694000000
  H   0.00806855000000      0.58592401000000     -3.02021725000000
