21
Coordinates from ORCA-job 4_7_orca
  Sc  1.64994467000000     -1.22608632000000     -1.54684225000000
  C   0.42357684000000     -0.63217119000000      0.24890812000000
  N   -0.45507681000000     -1.37565274000000      0.94884278000000
  C   -0.81220499000000     -0.75406818000000      2.10979650000000
  C   -0.14622866000000      0.43291424000000      2.13556593000000
  N   0.59527632000000      0.48145853000000      0.99127383000000
  C   1.42327405000000      1.60867662000000      0.60742830000000
  H   1.51312561000000      2.28133306000000      1.45792710000000
  H   0.99808405000000      2.16187486000000     -0.22662729000000
  H   2.41561144000000      1.26581221000000      0.33639804000000
  C   -0.98058219000000     -2.67013001000000      0.55629750000000
  H   -0.58694280000000     -2.96538942000000     -0.41319424000000
  H   -2.06705422000000     -2.63228255000000      0.48160584000000
  H   -0.69752725000000     -3.41795146000000      1.29459939000000
  H   -1.47202197000000     -1.20352539000000      2.82475917000000
  H   -0.12879098000000      1.19898898000000      2.89019418000000
  C   -0.32791430000000      1.58019160000000     -2.92387838000000
  H   -1.06564430000000      1.64110115000000     -3.79963130000000
  H   0.53431892000000      2.20000008000000     -2.99648381000000
  H   -0.83620623000000      1.51174271000000     -1.94958497000000
  H   0.03106479000000      0.52434096000000     -3.03319905000000
