27
Generated by autodE on: 2023-07-16. 
Pd   -2.07585  -1.55326   0.47883
Cl   -3.57232  -3.23175  -0.16378
Cl   -0.60454  -4.12839   1.07643
Cl   -3.88329  -0.15457   0.70423
N    -0.96311  -0.15194   1.41643
C    -1.28007   0.39318   2.58018
C    -0.75710   1.60900   3.01012
C     0.08114   2.29430   2.16777
C    -0.05167   0.44315   0.61246
C     0.45032   1.72409   0.94713
H     0.47151   3.27764   2.43103
H    -1.98282  -0.14089   3.20785
H    -1.05068   2.02536   3.96931
C     0.37611  -0.24489  -0.57991
C     1.30489   2.40937   0.04103
C     1.63632   1.82377  -1.12297
C     1.20225   0.50529  -1.45912
H     1.67979   3.39513   0.31190
H     2.28656   2.34353  -1.81695
C    -0.06613  -1.57625  -0.84101
C     1.62397  -0.06543  -2.66272
C     0.39323  -2.07492  -2.07896
C     1.21787  -1.34293  -2.96056
H     2.29732   0.50014  -3.30732
H     1.57459  -1.78942  -3.88396
H    -0.43565  -3.21536   0.36022
H     0.10675  -3.06693  -2.42834
