30
Coordinates from ORCA-job 3_0_orca
  Lu  0.10585949000000     -0.22874384000000      0.19634884000000
  C   0.49279316000000      0.57704241000000      2.60659349000000
  C   1.60429071000000     -0.22597763000000      2.26866251000000
  C   2.34440866000000      0.45223737000000      1.27814149000000
  C   1.65617211000000      1.63741433000000      0.94744022000000
  C   0.53682298000000      1.72843522000000      1.80418182000000
  H   1.97834980000000      2.39045621000000      0.24131535000000
  H   -0.07159893000000      2.61266379000000      1.92568639000000
  H   -0.18441886000000      0.40765248000000      3.42981307000000
  H   1.85677247000000     -1.17571225000000      2.72141497000000
  H   3.26996722000000      0.11022807000000      0.83902046000000
  C   0.72451943000000     -0.11676291000000     -2.28121657000000
  C   -0.48130944000000     -0.84754477000000     -2.23238415000000
  C   1.14938177000000     -2.10767649000000     -1.25883184000000
  C   1.73737888000000     -0.90748578000000     -1.70469940000000
  H   0.86347207000000      0.83543821000000     -2.77260550000000
  C   -0.22078136000000     -2.06767724000000     -1.59621332000000
  H   -1.38674281000000     -0.59931053000000     -2.76290275000000
  H   2.78221005000000     -0.65179310000000     -1.61264390000000
  H   1.65786294000000     -2.92247632000000     -0.76134345000000
  H   -0.91971550000000     -2.88411732000000     -1.49936791000000
  C   -2.01907397000000     -1.44867492000000      1.16536909000000
  H   -2.34341013000000     -1.12035388000000      2.15441052000000
  H   -1.96721434000000     -2.54920051000000      1.22398315000000
  H   -2.84388142000000     -1.31321742000000      0.45966543000000
  C   -1.92892058000000      2.16900886000000     -1.02285718000000
  H   -2.50822387000000      0.86005061000000      0.15754197000000
  H   -0.97387515000000      2.62517357000000     -1.28540888000000
  H   -2.55515202000000      2.99724775000000     -0.68870040000000
  H   -2.35595338000000      1.76369099000000     -1.94042222000000
