30
Coordinates from ORCA-job 3_1_orca
  Lu  0.03361709000000     -0.24133503000000      0.20845779000000
  C   0.49600952000000      0.61021444000000      2.60805694000000
  C   1.58738951000000     -0.21481339000000      2.26235643000000
  C   2.33931792000000      0.43670546000000      1.27053612000000
  C   1.69084179000000      1.64746946000000      0.95904927000000
  C   0.55639377000000      1.76383779000000      1.79463656000000
  H   2.01586091000000      2.38793205000000      0.23972853000000
  H   -0.05919656000000      2.63457469000000      1.89532291000000
  H   -0.20051747000000      0.43918840000000      3.40914822000000
  H   1.82122070000000     -1.16939048000000      2.71716513000000
  H   3.26560814000000      0.09033818000000      0.84585033000000
  C   0.75478874000000     -0.10897046000000     -2.30850617000000
  C   -0.46228455000000     -0.83460298000000     -2.26807534000000
  C   1.13371905000000     -2.09307966000000     -1.24905832000000
  C   1.74438513000000     -0.90612611000000     -1.69571257000000
  H   0.89847506000000      0.83944529000000     -2.78631222000000
  C   -0.22622890000000     -2.06411696000000     -1.61244127000000
  H   -1.37341141000000     -0.56831105000000     -2.78045722000000
  H   2.79023583000000     -0.66029397000000     -1.60600264000000
  H   1.63538707000000     -2.91497948000000     -0.75251458000000
  H   -0.93845999000000     -2.85071138000000     -1.49854557000000
  C   -1.98976236000000     -1.45818336000000      1.14843091000000
  H   -2.33465632000000     -1.14711713000000      2.16997158000000
  H   -1.94546345000000     -2.56071685000000      1.21971672000000
  H   -2.89113794000000     -1.33590761000000      0.50038292000000
  C   -2.02955621000000      2.08963100000000     -0.96600083000000
  H   -2.42317793000000      0.91614657000000      0.08687744000000
  H   -0.95928112000000      2.58062302000000     -1.25332759000000
  H   -2.55772678000000      2.95218633000000     -0.64035299000000
  H   -2.37271080000000      1.73994433000000     -1.90285632000000
