30
Coordinates from ORCA-job 3_7_orca
  Lu  -0.07177818000000     -0.22600659000000      0.19529880000000
  C   0.47005566000000      0.73638910000000      2.56273689000000
  C   1.49644754000000     -0.17900641000000      2.24062017000000
  C   2.31488290000000      0.40488218000000      1.25396698000000
  C   1.77932166000000      1.66744424000000      0.93580552000000
  C   0.63943405000000      1.87798780000000      1.74763353000000
  H   2.20730467000000      2.38106341000000      0.24469538000000
  H   0.02848765000000      2.76710842000000      1.76679514000000
  H   -0.28062478000000      0.60390582000000      3.32127820000000
  H   1.64857060000000     -1.14619576000000      2.70444350000000
  H   3.23589368000000     -0.01051953000000      0.86840738000000
  C   0.84949768000000     -0.08775179000000     -2.37126472000000
  C   -0.39733867000000     -0.76301581000000     -2.38872060000000
  C   1.08111826000000     -2.04309997000000     -1.21910988000000
  C   1.76454908000000     -0.89357095000000     -1.66567928000000
  H   1.07544758000000      0.84188464000000     -2.86829115000000
  C   -0.25044326000000     -1.97764481000000     -1.68738240000000
  H   -1.29076215000000     -0.42978007000000     -2.89138125000000
  H   2.82188370000000     -0.70277534000000     -1.55920473000000
  H   1.52677062000000     -2.87839175000000     -0.68969524000000
  H   -1.02174888000000     -2.70522415000000     -1.51794690000000
  C   -2.05588577000000     -1.49606861000000      1.15901702000000
  H   -2.24505447000000     -1.28020363000000      2.22178598000000
  H   -1.85522645000000     -2.58003365000000      1.15424888000000
  H   -3.06302586000000     -1.42737418000000      0.71138427000000
  C   -2.07108290000000      1.91245164000000     -0.83717482000000
  H   -2.09914721000000      1.03542844000000     -0.13647719000000
  H   -1.10681232000000      2.27733942000000     -1.05410962000000
  H   -2.60827432000000      2.70908464000000     -0.38867954000000
  H   -2.51656236000000      1.59944773000000     -1.74107693000000
