30
Coordinates from ORCA-job 3_8_orca
  Lu  -0.06013753000000     -0.21471490000000      0.18189911000000
  C   0.44944311000000      0.77989586000000      2.53276568000000
  C   1.45574443000000     -0.16801660000000      2.22923712000000
  C   2.30260684000000      0.39663546000000      1.25210646000000
  C   1.80096130000000      1.66729808000000      0.91436237000000
  C   0.65926717000000      1.90818228000000      1.71563800000000
  H   2.28084952000000      2.37733993000000      0.25124601000000
  H   0.07446207000000      2.82046479000000      1.72253869000000
  H   -0.31750570000000      0.66970756000000      3.28380543000000
  H   1.58129258000000     -1.13335355000000      2.70030579000000
  H   3.21337312000000     -0.04891736000000      0.87356898000000
  C   0.88014546000000     -0.07640633000000     -2.38061403000000
  C   -0.37690684000000     -0.72942289000000     -2.41834418000000
  C   1.06188766000000     -2.02768632000000     -1.21253399000000
  C   1.76898353000000     -0.88921187000000     -1.65681037000000
  H   1.14599162000000      0.83384484000000     -2.90314929000000
  C   -0.26040500000000     -1.93526957000000     -1.70731029000000
  H   -1.25480446000000     -0.37750586000000     -2.94156401000000
  H   2.82766715000000     -0.71546749000000     -1.53378794000000
  H   1.48091887000000     -2.85763917000000     -0.66204273000000
  H   -1.05155651000000     -2.64900505000000     -1.53328930000000
  C   -2.09070240000000     -1.48666158000000      1.16795297000000
  H   -2.20395215000000     -1.32012015000000      2.25217291000000
  H   -1.82598047000000     -2.56169340000000      1.10409080000000
  H   -3.13676494000000     -1.44912425000000      0.79264726000000
  C   -2.07249573000000      1.84788693000000     -0.80334660000000
  H   -2.02016681000000      0.95260662000000     -0.12659043000000
  H   -1.07321311000000      2.21273721000000     -1.02039735000000
  H   -2.63728758000000      2.61806094000000     -0.27004951000000
  H   -2.59084127000000      1.53542917000000     -1.71087261000000
