30
Coordinates from ORCA-job 3_9_orca
  Lu  -0.03855341000000     -0.19592006000000      0.16609223000000
  C   0.43299178000000      0.80693277000000      2.50845437000000
  C   1.42483632000000     -0.15646415000000      2.22023986000000
  C   2.29236457000000      0.38879918000000      1.24946659000000
  C   1.81472092000000      1.66616285000000      0.90330248000000
  C   0.66918783000000      1.92405536000000      1.68526349000000
  H   2.32555899000000      2.37175434000000      0.25644966000000
  H   0.10931549000000      2.85524680000000      1.69571857000000
  H   -0.34528003000000      0.71323269000000      3.25304882000000
  H   1.53655321000000     -1.12283671000000      2.69739636000000
  H   3.19384982000000     -0.07312950000000      0.87631145000000
  C   0.90093032000000     -0.07133352000000     -2.38555544000000
  C   -0.35962168000000     -0.70109723000000     -2.43211118000000
  C   1.04653034000000     -2.01224057000000     -1.21144335000000
  C   1.76866694000000     -0.88751746000000     -1.65169150000000
  H   1.19207805000000      0.82689963000000     -2.92636835000000
  C   -0.27085005000000     -1.90793247000000     -1.71411571000000
  H   -1.22871812000000     -0.34398423000000     -2.97569196000000
  H   2.83064559000000     -0.72125103000000     -1.51408413000000
  H   1.45001985000000     -2.84319783000000     -0.64224454000000
  H   -1.07004991000000     -2.61045335000000     -1.54685422000000
  C   -2.11832903000000     -1.46398735000000      1.17188044000000
  H   -2.17563446000000     -1.33742370000000      2.26513068000000
  H   -1.81316941000000     -2.51820167000000      1.05345923000000
  H   -3.18394536000000     -1.45722879000000      0.85453418000000
  C   -2.05038030000000      1.80669588000000     -0.78372634000000
  H   -2.00614436000000      0.83764468000000     -0.08708434000000
  H   -1.07504335000000      2.18234483000000     -1.01655860000000
  H   -2.62388048000000      2.52139800000000     -0.20204502000000
  H   -2.61284937000000      1.49936892000000     -1.66214162000000
