38
Coordinates from ORCA-job 7_4_orca
  C   -2.04156557000000     -0.09247692000000      0.63414453000000
  C   -1.78806178000000      1.06647764000000      1.41849874000000
  C   -3.44049460000000     -0.32421686000000      0.47103041000000
  C   -4.47114405000000      0.56771162000000      0.83347305000000
  C   -4.14001593000000      1.76565656000000      1.46920750000000
  C   -2.82368281000000      1.93999952000000      1.83538083000000
  H   -2.27255512000000     -2.08496895000000     -2.01698678000000
  H   -3.79813186000000     -1.30372929000000      0.12071977000000
  H   -2.54688961000000      2.89496635000000      2.30013713000000
  H   -5.51750369000000      0.38548057000000      0.56749879000000
  H   -4.90272472000000      2.43604486000000      1.83955687000000
  C   -0.42678008000000      1.40206228000000      2.00887085000000
  C   0.75260161000000      0.39814683000000      2.03350971000000
  H   -0.58548481000000      1.70831692000000      3.06276565000000
  H   -0.11845703000000      2.30761971000000      1.48385847000000
  C   1.74017677000000      0.61196182000000      0.91724773000000
  H   0.38488867000000     -0.63675351000000      2.02341647000000
  H   1.29871771000000      0.52716210000000      2.97415727000000
  C   1.54516648000000      0.02700704000000     -0.33661440000000
  C   2.50051839000000      0.29089141000000     -1.33662144000000
  C   3.51326463000000      1.22916960000000     -1.14218062000000
  C   2.80944241000000      1.48516442000000      1.13041783000000
  C   3.68890421000000      1.81831306000000      0.10875865000000
  H   2.48898017000000     -0.27219752000000     -2.27223701000000
  H   4.22870095000000      1.42090644000000     -1.92526600000000
  H   3.05642583000000      1.78095287000000      2.14450036000000
  H   4.42157379000000      2.60536742000000      0.25056028000000
  Pd  -0.09959740000000     -1.25351001000000     -0.49657508000000
  Br  -1.62129630000000     -3.59311273000000     -0.55337272000000
  P   1.50899663000000     -2.98494638000000     -0.09029640000000
  H   1.24095492000000     -3.61816364000000      1.15340057000000
  C   0.21558430000000     -1.53328354000000     -3.88404367000000
  O   1.37137913000000     -1.72675255000000     -4.14957798000000
  O   -0.64002323000000     -2.28822041000000     -3.18223502000000
  O   -0.34409247000000     -0.30554283000000     -4.12724274000000
  H   2.88185704000000     -2.77003608000000      0.11800191000000
  H   1.58224002000000     -4.14539944000000     -0.88097532000000
  H   0.34961737000000      0.26438720000000     -4.50356335000000
