38
Coordinates from ORCA-job 3_2_orca
  C   -2.57363800000000     -0.28591016000000      0.73343540000000
  C   -1.97650589000000      0.89520099000000      1.34262262000000
  C   -3.88560141000000     -0.54851107000000      1.10190853000000
  C   -4.70956078000000      0.42537981000000      1.62095805000000
  C   -4.17706476000000      1.59350920000000      2.13606943000000
  C   -2.82112279000000      1.75562057000000      2.13597382000000
  H   -2.48604300000000     -1.19236238000000     -0.75453962000000
  H   -4.27356364000000     -1.52695701000000      0.92419010000000
  H   -2.38974751000000      2.62076227000000      2.63054297000000
  H   -5.78496080000000      0.27288864000000      1.61294189000000
  H   -4.81679994000000      2.34087632000000      2.56740445000000
  C   -0.61415170000000      1.42657907000000      1.01505274000000
  C   0.54938656000000      0.53245682000000      1.53930969000000
  H   -0.45063605000000      2.43770296000000      1.38395620000000
  H   -0.60894076000000      1.54778911000000     -0.06516780000000
  C   1.76098342000000      0.59539672000000      0.68129241000000
  H   0.20126462000000     -0.49121981000000      1.63499656000000
  H   0.77729223000000      0.85850531000000      2.55586861000000
  C   1.82388517000000     -0.10406651000000     -0.53831315000000
  C   2.92519467000000      0.08362707000000     -1.36839044000000
  C   3.87634839000000      1.06110841000000     -1.06809688000000
  C   2.80142744000000      1.44188117000000      1.02491916000000
  C   3.82795080000000      1.72734619000000      0.13311911000000
  H   3.03662392000000     -0.50133225000000     -2.27060265000000
  H   4.66921665000000      1.26655527000000     -1.78192689000000
  H   2.81641303000000      1.86882551000000      2.02262777000000
  H   4.50608722000000      2.54675627000000      0.34335724000000
  Pd  0.37651009000000     -1.50835845000000     -1.10259325000000
  Br  -1.29095292000000     -3.71845071000000     -1.26870024000000
  P   1.30453751000000     -2.98850383000000      0.29631265000000
  H   0.53038897000000     -3.44025865000000      1.35402830000000
  C   0.50053864000000     -1.15978159000000     -3.97597220000000
  O   1.66655331000000     -1.63710897000000     -4.17444779000000
  O   -0.33527334000000     -1.42581036000000     -3.08550549000000
  O   0.18200002000000     -0.00568835000000     -4.69850105000000
  H   2.50016956000000     -2.73447724000000      0.96381256000000
  H   1.67959019000000     -4.20526268000000     -0.29720959000000
  H   0.88144325000000      0.17932242000000     -5.30149157000000
