38
Coordinates from ORCA-job 3_3_orca
  C   -2.56903228000000     -0.28168132000000      0.69639321000000
  C   -1.98659271000000      0.89263683000000      1.33419715000000
  C   -3.88425968000000     -0.54451625000000      1.06878636000000
  C   -4.70957835000000      0.41958994000000      1.61898556000000
  C   -4.18704532000000      1.58885834000000      2.13011035000000
  C   -2.81793671000000      1.75594064000000      2.11430897000000
  H   -2.46993835000000     -1.15538981000000     -0.71764659000000
  H   -4.26274163000000     -1.53060547000000      0.90300782000000
  H   -2.39897121000000      2.62849682000000      2.61909118000000
  H   -5.78043698000000      0.27176636000000      1.58318016000000
  H   -4.82731486000000      2.34418102000000      2.54820295000000
  C   -0.60207976000000      1.42446500000000      1.03699532000000
  C   0.55770386000000      0.52753004000000      1.55367301000000
  H   -0.45001893000000      2.43304111000000      1.43258174000000
  H   -0.59061508000000      1.56165677000000     -0.04204493000000
  C   1.76901787000000      0.58618871000000      0.68934368000000
  H   0.20092831000000     -0.49432625000000      1.64240947000000
  H   0.79171613000000      0.85057156000000      2.56888697000000
  C   1.81425538000000     -0.10759859000000     -0.53923789000000
  C   2.91617493000000      0.08952249000000     -1.36771433000000
  C   3.87016082000000      1.06255580000000     -1.07393820000000
  C   2.80041921000000      1.45343935000000      1.02425999000000
  C   3.82810625000000      1.73048601000000      0.13547682000000
  H   3.02271635000000     -0.49748171000000     -2.27362252000000
  H   4.65850503000000      1.27054866000000     -1.78617643000000
  H   2.82679726000000      1.86647998000000      2.02664915000000
  H   4.51080005000000      2.54251375000000      0.34415533000000
  Pd  0.35685997000000     -1.52827910000000     -1.10837187000000
  Br  -1.29728847000000     -3.71010883000000     -1.23552898000000
  P   1.30867844000000     -2.98491614000000      0.28830405000000
  H   0.54834531000000     -3.44990708000000      1.35554000000000
  C   0.51951831000000     -1.18140785000000     -3.99175576000000
  O   1.64144908000000     -1.62145900000000     -4.17450774000000
  O   -0.34210815000000     -1.44490975000000     -3.06545920000000
  O   0.15859930000000     -0.01537641000000     -4.67481563000000
  H   2.51700079000000     -2.73588805000000      0.94780202000000
  H   1.67575685000000     -4.20116961000000     -0.31659613000000
  H   0.88118770000000      0.18955926000000     -5.29088346000000
