21
Coordinates from ORCA-job 8_10_orca
  C   -1.47392018000000      0.17347478000000     -0.57495368000000
  C   -2.09543092000000     -0.89064753000000     -1.21727003000000
  C   -1.70703929000000     -2.18801890000000     -0.96377965000000
  C   -0.84128622000000     -2.43728004000000      0.07925998000000
  C   -0.37615929000000     -0.09871114000000      0.25727663000000
  C   -0.21605498000000     -1.40020806000000      0.74583134000000
  H   -1.78113779000000      1.20117234000000     -0.77318194000000
  H   -2.74549108000000     -0.67206106000000     -2.02554788000000
  H   -2.04491970000000     -3.00588672000000     -1.59438941000000
  H   0.47667096000000     -1.56706716000000      1.56820299000000
  H   -0.49658459000000     -3.41603572000000      0.29467587000000
  Pd  1.25778665000000      0.94574528000000     -0.04324419000000
  O   3.16972332000000      1.28401557000000     -1.21061150000000
  O   2.56646702000000     -0.61017380000000     -0.27571643000000
  O   0.35944003000000      2.73789413000000      0.30755837000000
  C   -0.18033135000000      2.91276437000000      1.33271325000000
  O   0.04029340000000      2.00625105000000      2.37304407000000
  H   -0.76489643000000      1.49666343000000      2.47504750000000
  C   3.35721341000000      0.07894975000000     -0.98188416000000
  H   4.22661726000000     -0.44274761000000     -1.38665756000000
  H   -0.75586707000000      3.86641176000000      1.59477471000000
