21
Coordinates from ORCA-job 8_3_orca
  C   -1.48465388000000      0.15767528000000     -0.64283484000000
  C   -2.14844790000000     -0.89197184000000     -1.23613704000000
  C   -1.83211055000000     -2.19107264000000     -0.88967185000000
  C   -0.86471151000000     -2.46131741000000      0.07126945000000
  C   -0.42650449000000     -0.05713611000000      0.30397614000000
  C   -0.21564099000000     -1.42130094000000      0.69964292000000
  H   -1.73565341000000      1.16667653000000     -0.99080437000000
  H   -2.90007842000000     -0.69248664000000     -1.98182759000000
  H   -2.36813631000000     -3.00222427000000     -1.34268627000000
  H   0.55811129000000     -1.66031523000000      1.43792814000000
  H   -0.60904856000000     -3.47602523000000      0.31483797000000
  Pd  1.36963514000000      1.03373479000000     -0.10960834000000
  O   3.36841536000000      1.37648743000000     -1.11567210000000
  O   2.65285910000000     -0.54212613000000     -0.37402173000000
  O   0.36011066000000      2.80777258000000      0.16188195000000
  C   -0.08219278000000      2.88617348000000      1.32474508000000
  O   0.16491210000000      2.03495852000000      2.30123667000000
  H   -1.01413216000000      1.42887551000000      2.80517357000000
  C   3.53788244000000      0.15174538000000     -0.96335711000000
  H   4.44755836000000     -0.35028413000000     -1.33398589000000
  H   -0.78210199000000      3.70013173000000      1.55904894000000
