21
Coordinates from ORCA-job 8_8_orca
  C   -1.47206019000000      0.17857942000000     -0.56020681000000
  C   -2.10206223000000     -0.87531962000000     -1.20847979000000
  C   -1.73209699000000     -2.19309302000000     -0.95371483000000
  C   -0.84340927000000     -2.42263662000000      0.09751666000000
  C   -0.38338485000000     -0.08587921000000      0.26186870000000
  C   -0.22099893000000     -1.37380161000000      0.74204288000000
  H   -1.78086352000000      1.17676300000000     -0.82342308000000
  H   -2.78720679000000     -0.68557510000000     -2.03669666000000
  H   -2.14919150000000     -3.02936539000000     -1.53903839000000
  H   0.47267521000000     -1.59067245000000      1.52825779000000
  H   -0.51699181000000     -3.44120802000000      0.28207754000000
  Pd  1.23220174000000      0.94777017000000     -0.04039424000000
  O   3.24451761000000      1.31318120000000     -1.21005255000000
  O   2.59404641000000     -0.57945232000000     -0.28628276000000
  O   0.37958403000000      2.74945606000000      0.33893134000000
  C   -0.22421790000000      2.88270575000000      1.34175376000000
  O   0.02407500000000      2.00163427000000      2.31679458000000
  H   -0.75089040000000      1.54261604000000      2.52412760000000
  C   3.41296350000000      0.10703635000000     -0.97631342000000
  H   4.29614185000000     -0.42005590000000     -1.38044201000000
  H   -0.71185108000000      3.78078260000000      1.57020392000000
