39
Generated by autodE on: 2023-08-17. 
Ir    0.62308  -0.71452   0.43225
C     0.10955  -2.81998   0.33040
C     0.04556  -2.36203   1.69347
C     2.21364  -2.09410   0.94423
C     1.42749  -2.64537  -0.13401
C     1.36245  -1.95196   2.06165
N    -1.04556   0.14289  -0.51862
C    -2.30930   0.41936   0.18230
C    -3.09069   1.58343  -0.40806
H    -3.91217   1.83288   0.26211
H    -3.53916   1.34662  -1.37384
H    -2.47398   2.47607  -0.51483
C    -3.14722  -0.85315   0.23480
H    -2.01264   0.68414   1.19800
H    -4.04674  -0.67718   0.82297
H    -3.45700  -1.16393  -0.76379
H    -2.60852  -1.67738   0.69994
C    -0.88751   0.39193  -1.76372
C     0.44460   0.19035  -2.27100
H    -1.69141   0.76924  -2.38841
C     1.52297   0.26850  -1.38945
C     2.73345  -0.07031  -2.06621
S     0.89338  -0.27023  -3.84106
C     2.54306  -0.37849  -3.37684
H     1.53148   1.22799  -0.65117
H     3.71052  -0.03131  -1.60704
H     3.28803  -0.64121  -4.11252
H    -0.71471  -3.21558  -0.24542
H    -0.81222  -2.40227   2.34791
H     1.64263  -1.52944   3.01619
O     1.42939   2.42537   0.17292
O     0.54913   0.96268   1.60360
C     0.97130   2.13221   1.28030
C     0.90780   3.16018   2.37430
H     0.86644   4.16375   1.95966
H     1.81339   3.08770   2.97966
H     0.06026   2.99242   3.03500
H     3.26933  -1.87120   0.91728
H     1.78927  -2.88889  -1.12222
