38
Coordinates from ORCA-job 4_2_orca
  C   -2.47371991000000     -0.19416891000000      0.77801866000000
  C   -1.93331508000000      0.94000143000000      1.40198169000000
  C   -3.79721779000000     -0.52189722000000      0.95302864000000
  C   -4.68157973000000      0.43538115000000      1.41873063000000
  C   -4.21459977000000      1.60727199000000      1.97818527000000
  C   -2.87563412000000      1.79511963000000      2.09642484000000
  H   -2.53358775000000     -1.24765383000000     -1.18237627000000
  H   -4.13956325000000     -1.52113367000000      0.80564755000000
  H   -2.51367733000000      2.71397697000000      2.53372289000000
  H   -5.75151660000000      0.26917580000000      1.31045407000000
  H   -4.90319278000000      2.33429189000000      2.37404708000000
  C   -0.54259671000000      1.47684593000000      1.26247955000000
  C   0.61821316000000      0.50588969000000      1.66961865000000
  H   -0.39269153000000      2.39394171000000      1.80335022000000
  H   -0.50325945000000      1.78024792000000      0.21529481000000
  C   1.77842611000000      0.59730534000000      0.74974652000000
  H   0.24519046000000     -0.50733658000000      1.73100818000000
  H   0.91690193000000      0.76540599000000      2.68356928000000
  C   1.77577127000000     -0.06468663000000     -0.49034789000000
  C   2.83926087000000      0.12659992000000     -1.36635389000000
  C   3.81131090000000      1.09721748000000     -1.08873981000000
  C   2.84699700000000      1.42409447000000      1.06505154000000
  C   3.82135283000000      1.73999243000000      0.12320686000000
  H   2.92707522000000     -0.45568477000000     -2.26901576000000
  H   4.57717263000000      1.30778153000000     -1.83216957000000
  H   2.93058680000000      1.80959916000000      2.07581467000000
  H   4.50337917000000      2.56295435000000      0.31420915000000
  Pd  0.28600429000000     -1.42686713000000     -0.98778615000000
  Br  -1.41023415000000     -3.74546353000000     -1.04472652000000
  P   1.35862824000000     -3.00361540000000      0.20099607000000
  H   0.71167818000000     -3.50144455000000      1.32670945000000
  C   0.43498243000000     -1.32018519000000     -3.96194883000000
  O   1.65266418000000     -1.64594307000000     -4.19767751000000
  O   -0.40296749000000     -1.74951368000000     -3.13003587000000
  O   0.02205063000000     -0.07020536000000     -4.53152900000000
  H   2.61724738000000     -2.77378518000000      0.75389687000000
  H   1.66982450000000     -4.19120376000000     -0.47153739000000
  H   0.72359110000000      0.25955558000000     -5.06908152000000
