38
Coordinates from ORCA-job 4_4_orca
  C   -2.46083648000000     -0.18340528000000      0.73823703000000
  C   -1.96074969000000      0.98013975000000      1.37064867000000
  C   -3.80446977000000     -0.50449238000000      0.88103294000000
  C   -4.69071376000000      0.40566643000000      1.43201967000000
  C   -4.23599528000000      1.59983578000000      1.95955035000000
  C   -2.85726750000000      1.81319357000000      2.02154581000000
  H   -2.44161613000000     -1.23201333000000     -1.09330985000000
  H   -4.11970347000000     -1.52738893000000      0.71726369000000
  H   -2.50808299000000      2.73438685000000      2.49256277000000
  H   -5.73631561000000      0.25824717000000      1.26259237000000
  H   -4.91945710000000      2.34588707000000      2.33177911000000
  C   -0.51272521000000      1.45895428000000      1.31025285000000
  C   0.63118910000000      0.48986847000000      1.70561162000000
  H   -0.41842323000000      2.36819052000000      1.94066508000000
  H   -0.43167126000000      1.80242303000000      0.28533283000000
  C   1.79608521000000      0.56913446000000      0.76215656000000
  H   0.23814671000000     -0.52536291000000      1.74358373000000
  H   0.95445235000000      0.74719081000000      2.71398171000000
  C   1.75021886000000     -0.09455639000000     -0.48584510000000
  C   2.81215588000000      0.14021481000000     -1.36695952000000
  C   3.78594262000000      1.09854047000000     -1.10428002000000
  C   2.83224463000000      1.45994484000000      1.05958981000000
  C   3.81206590000000      1.75012721000000      0.12724525000000
  H   2.88154019000000     -0.44661824000000     -2.28317030000000
  H   4.54803499000000      1.31110086000000     -1.83879059000000
  H   2.93661101000000      1.82415044000000      2.07680737000000
  H   4.51986425000000      2.54352571000000      0.31907647000000
  Pd  0.23156119000000     -1.48222489000000     -1.00306201000000
  Br  -1.42070216000000     -3.69723193000000     -0.97456291000000
  P   1.36566092000000     -2.98897798000000      0.18086650000000
  H   0.75319254000000     -3.52235418000000      1.32302389000000
  C   0.46820674000000     -1.31978996000000     -3.99450843000000
  O   1.59401200000000     -1.62235874000000     -4.20144163000000
  O   -0.42075018000000     -1.77344193000000     -3.07004093000000
  O   -0.00884107000000     -0.10725010000000     -4.48859797000000
  H   2.65449205000000     -2.76595781000000      0.71319681000000
  H   1.65120875000000     -4.17811415000000     -0.51661622000000
  H   0.72879517000000      0.27194278000000     -5.04303607000000
