39
Coordinates from ORCA-job 4_1_orca
  Ir  0.46469772000000     -0.68606026000000      0.90337759000000
  C   -0.08872295000000     -2.72836105000000      1.63306755000000
  C   0.76962741000000     -2.09975410000000      2.56051792000000
  C   1.88126744000000     -2.30423713000000      0.59587843000000
  C   0.63466779000000     -2.85406979000000      0.39161415000000
  C   2.00028526000000     -1.82590337000000      1.96490148000000
  N   -0.98240066000000     -0.00296620000000     -0.43108389000000
  C   -2.43106867000000      0.06400442000000      0.03272109000000
  C   -2.87615422000000      1.48215705000000      0.34888527000000
  H   -3.91582036000000      1.45097982000000      0.70165128000000
  H   -2.83167938000000      2.12137490000000     -0.52534931000000
  H   -2.31438945000000      1.90940975000000      1.14493248000000
  C   -3.37343754000000     -0.59680943000000     -0.98014842000000
  H   -2.45150808000000     -0.51162410000000      0.93307731000000
  H   -4.36610222000000     -0.68357661000000     -0.49859680000000
  H   -3.53445006000000      0.00257363000000     -1.87037945000000
  H   -3.06203392000000     -1.58298351000000     -1.25353241000000
  C   -0.71285760000000      0.29604609000000     -1.66029273000000
  C   0.57313085000000      0.19282526000000     -2.27658002000000
  H   -1.52074449000000      0.56924418000000     -2.29921165000000
  C   1.91348252000000      0.22058026000000     -1.57657077000000
  C   2.86510946000000     -0.00930578000000     -2.63718564000000
  S   0.72225165000000      0.10977548000000     -3.99571270000000
  C   2.42960523000000     -0.02502345000000     -3.90684427000000
  H   2.18904263000000      0.92194272000000     -0.85459896000000
  H   3.92744939000000      0.02058953000000     -2.37112014000000
  H   3.02478120000000     -0.13939318000000     -4.79074121000000
  H   -0.96255128000000     -3.31540748000000      1.87683813000000
  H   0.51700195000000     -1.96440367000000      3.63084087000000
  H   2.87373477000000     -1.44756372000000      2.40334248000000
  O   1.68906375000000      1.73406190000000      0.76992366000000
  O   -0.01781127000000      1.01442133000000      1.96801006000000
  C   0.92000996000000      1.98441576000000      1.50297691000000
  C   0.72953482000000      3.37705933000000      2.16528451000000
  H   0.82168319000000      4.11371928000000      1.35875459000000
  H   1.60699606000000      3.53480373000000      2.81394993000000
  H   -0.15714697000000      3.51717458000000      2.72234986000000
  H   2.74826912000000     -2.41434598000000     -0.06256155000000
  H   0.29637058000000     -3.44495371000000     -0.43166573000000
