39
Coordinates from ORCA-job 4_3_orca
  Ir  0.45819415000000     -0.69379557000000      0.91103475000000
  C   -0.08603961000000     -2.72800493000000      1.61994993000000
  C   0.76713295000000     -2.09767994000000      2.57824225000000
  C   1.90108493000000     -2.30479905000000      0.60135675000000
  C   0.63108460000000     -2.85830055000000      0.39894572000000
  C   1.99191625000000     -1.83050351000000      1.95602878000000
  N   -0.98573684000000     -0.00207567000000     -0.43457938000000
  C   -2.42599878000000      0.06587852000000      0.02316325000000
  C   -2.88193646000000      1.47678564000000      0.35001280000000
  H   -3.91438568000000      1.44928023000000      0.70089300000000
  H   -2.83147196000000      2.12297257000000     -0.52350669000000
  H   -2.30766313000000      1.91004380000000      1.15304590000000
  C   -3.38023783000000     -0.59060254000000     -0.97256258000000
  H   -2.45177799000000     -0.51763701000000      0.93788606000000
  H   -4.36213665000000     -0.68323669000000     -0.50120794000000
  H   -3.53479296000000      0.00525028000000     -1.87159418000000
  H   -3.06086307000000     -1.58782391000000     -1.25804849000000
  C   -0.70902838000000      0.29161174000000     -1.65477372000000
  C   0.60119580000000      0.19945375000000     -2.25483757000000
  H   -1.52819814000000      0.57156788000000     -2.30414138000000
  C   1.88425599000000      0.22053503000000     -1.63320911000000
  C   2.87424037000000     -0.00351696000000     -2.61697528000000
  S   0.72515312000000      0.10550590000000     -3.98736139000000
  C   2.42016361000000     -0.02923559000000     -3.90730434000000
  H   2.18475535000000      0.91495505000000     -0.84128941000000
  H   3.92418128000000      0.01799332000000     -2.37341854000000
  H   3.02516752000000     -0.13841892000000     -4.79305107000000
  H   -0.96805413000000     -3.30808166000000      1.87100706000000
  H   0.51292198000000     -1.96109323000000      3.62098920000000
  H   2.87937604000000     -1.44110027000000      2.41380910000000
  O   1.74402810000000      1.71691202000000      0.71951519000000
  O   0.01058335000000      1.03628177000000      1.95156674000000
  C   0.83946924000000      1.98389704000000      1.56976681000000
  C   0.74465497000000      3.37006526000000      2.15482767000000
  H   0.82032622000000      4.11433129000000      1.35988100000000
  H   1.60462157000000      3.53540627000000      2.81111844000000
  H   -0.16399766000000      3.51748596000000      2.72548142000000
  H   2.74642170000000     -2.40630453000000     -0.06012400000000
  H   0.30035290000000     -3.44314503000000     -0.43968116000000
