39
Coordinates from ORCA-job 4_4_orca
  Ir  0.44768545000000     -0.69869368000000      0.94166642000000
  C   -0.08509509000000     -2.72730493000000      1.60053592000000
  C   0.76017421000000     -2.10739800000000      2.58181002000000
  C   1.93165640000000     -2.33448358000000      0.63390411000000
  C   0.65724718000000     -2.87454891000000      0.40064787000000
  C   1.99464826000000     -1.82711103000000      1.97265474000000
  N   -0.99737806000000     -0.01042020000000     -0.44632337000000
  C   -2.42641475000000      0.06256642000000      0.02046018000000
  C   -2.88034585000000      1.47579443000000      0.36735380000000
  H   -3.91616490000000      1.43490732000000      0.69962109000000
  H   -2.83227077000000      2.12699559000000     -0.50792137000000
  H   -2.28700588000000      1.90101571000000      1.17842415000000
  C   -3.38595623000000     -0.58596544000000     -0.97233095000000
  H   -2.45115724000000     -0.53829094000000      0.94085573000000
  H   -4.35781314000000     -0.67991444000000     -0.50310886000000
  H   -3.53860049000000      0.01746361000000     -1.87138266000000
  H   -3.06437043000000     -1.59059373000000     -1.27556097000000
  C   -0.69602904000000      0.29232069000000     -1.66017714000000
  C   0.63890285000000      0.20649104000000     -2.21759850000000
  H   -1.54369691000000      0.57457193000000     -2.31404402000000
  C   1.87402065000000      0.31765521000000     -1.70689637000000
  C   2.87777526000000     -0.00700426000000     -2.61232919000000
  S   0.72238766000000      0.08921257000000     -3.96701000000000
  C   2.41055566000000     -0.04502316000000     -3.89735694000000
  H   2.12698044000000      0.82035142000000     -0.82580699000000
  H   3.92121421000000      0.00811093000000     -2.36763868000000
  H   3.01910356000000     -0.13105933000000     -4.79657687000000
  H   -0.99413291000000     -3.27228553000000      1.83604162000000
  H   0.48239160000000     -1.93903881000000      3.60524507000000
  H   2.87579918000000     -1.41971589000000      2.45171511000000
  O   1.74802533000000      1.70917045000000      0.71528817000000
  O   0.03895689000000      1.06698966000000      1.93421691000000
  C   0.84011386000000      1.95399471000000      1.56798695000000
  C   0.75021653000000      3.35141875000000      2.14170543000000
  H   0.81739074000000      4.11495288000000      1.35680340000000
  H   1.60458775000000      3.53512771000000      2.79856459000000
  H   -0.16727091000000      3.52431230000000      2.72598788000000
  H   2.75748536000000     -2.36373888000000     -0.05794427000000
  H   0.32418156000000     -3.42805858000000     -0.46985030000000
