39
Coordinates from ORCA-job 4_7_orca
  Ir  0.43745118000000     -0.74851225000000      0.97166408000000
  C   -0.08396461000000     -2.72809711000000      1.55549292000000
  C   0.72289586000000     -2.11439670000000      2.57602807000000
  C   1.99642621000000     -2.36067328000000      0.70024558000000
  C   0.74042754000000     -2.91013491000000      0.39610429000000
  C   1.99752432000000     -1.82329829000000      2.04608630000000
  N   -1.00044965000000     -0.03354631000000     -0.44039729000000
  C   -2.42174367000000      0.03440482000000      0.02243868000000
  C   -2.85772634000000      1.45303087000000      0.41850551000000
  H   -3.91390482000000      1.39692250000000      0.71712648000000
  H   -2.82619873000000      2.13409423000000     -0.43773050000000
  H   -2.25558279000000      1.85468836000000      1.23821178000000
  C   -3.39116782000000     -0.57822933000000     -0.99090600000000
  H   -2.45110302000000     -0.58603564000000      0.91979844000000
  H   -4.36604248000000     -0.67343611000000     -0.50518002000000
  H   -3.55243441000000      0.05589733000000     -1.86331543000000
  H   -3.08552284000000     -1.56923423000000     -1.32396645000000
  C   -0.72209117000000      0.29970300000000     -1.65242213000000
  C   0.59982842000000      0.26637174000000     -2.25589552000000
  H   -1.53185013000000      0.56790503000000     -2.32308554000000
  C   1.87770660000000      0.42963405000000     -1.78006132000000
  C   2.89896644000000      0.04740118000000     -2.64909614000000
  S   0.70784576000000      0.03231141000000     -3.94130287000000
  C   2.40198285000000     -0.09652849000000     -3.90553024000000
  H   2.01671052000000      0.63863047000000     -0.70662295000000
  H   3.93475936000000     -0.02415207000000     -2.34552174000000
  H   2.99009819000000     -0.12483957000000     -4.79492313000000
  H   -1.06243811000000     -3.17332182000000      1.71309267000000
  H   0.37116625000000     -1.88268412000000      3.57433530000000
  H   2.83180448000000     -1.36653226000000      2.56254319000000
  O   1.76742725000000      1.69063211000000      0.71413612000000
  O   0.05892906000000      1.05019938000000      1.91409774000000
  C   0.89786948000000      1.97186648000000      1.51722905000000
  C   0.75248186000000      3.34499938000000      2.11735297000000
  H   0.81121202000000      4.10250634000000      1.34372974000000
  H   1.61171035000000      3.53292598000000      2.75818525000000
  H   -0.14230776000000      3.51860192000000      2.69984517000000
  H   2.80667984000000     -2.24662790000000     -0.02225565000000
  H   0.42753421000000     -3.37554980000000     -0.53693672000000
