21
autodE path point 0. E = none charge = 1 mult = 1 
Sc    1.69148  -1.47736  -1.54143
C     0.53759  -0.77390   0.25469
N    -0.44476  -1.41618   0.91369
C    -0.93745  -0.64583   1.92857
C    -0.24356   0.51473   1.90574
N     0.65182   0.41381   0.87901
C     1.56466   1.48424   0.51834
H     2.03512   1.88367   1.41347
H     1.03331   2.28042   0.00126
H     2.34836   1.10255  -0.13211
C    -0.95510  -2.74249   0.61366
H    -0.29603  -3.24467  -0.09002
H    -1.94968  -2.67708   0.17754
H    -0.99706  -3.33574   1.52404
H    -1.72669  -0.97534   2.58256
H    -0.31604   1.38461   2.53599
C    -0.39662   1.64085  -2.69436
H    -0.67563   1.10695  -3.59866
H    -0.83342   2.63557  -2.72231
H    -0.77758   1.10882  -1.82420
H     0.68730   1.73239  -2.64548
21
autodE path point 1. E = none charge = 1 mult = 1 
Sc    1.62706  -1.44156  -1.57661
C     0.50830  -0.74492   0.24896
N    -0.45120  -1.41065   0.91647
C    -0.91068  -0.67508   1.97117
C    -0.23727   0.49678   1.95015
N     0.63679   0.42513   0.90339
C     1.53440   1.50780   0.54807
H     1.95441   1.96663   1.44018
H     1.00798   2.26609  -0.02686
H     2.37003   1.12833  -0.03588
C    -0.96344  -2.73198   0.60062
H    -0.35172  -3.19932  -0.16690
H    -1.98659  -2.66314   0.23760
H    -0.93503  -3.36070   1.48751
H    -1.66912  -1.03041   2.64753
H    -0.30743   1.34809   2.60525
C    -0.39605   1.63623  -2.73317
H    -0.79850   1.11205  -3.60089
H    -0.71099   2.67563  -2.76645
H    -0.78689   1.18097  -1.82575
H     0.86598   1.51405  -2.82439
21
autodE path point 2. E = none charge = 1 mult = 1 
Sc    1.48954  -1.35150  -1.67954
C     0.48091  -0.71449   0.24702
N    -0.46359  -1.40454   0.91161
C    -0.85988  -0.72090   2.02489
C    -0.22447   0.47146   2.00159
N     0.60405   0.44855   0.91722
C     1.48657   1.55139   0.58459
H     1.86436   2.06603   1.46572
H     0.95969   2.27148  -0.03640
H     2.37660   1.17254   0.08505
C    -0.97876  -2.72052   0.57542
H    -0.43724  -3.13618  -0.27031
H    -2.03381  -2.65332   0.31909
H    -0.85405  -3.39116   1.42265
H    -1.55785  -1.11809   2.74168
H    -0.26886   1.28796   2.70159
C    -0.36890   1.58939  -2.77254
H    -0.85842   1.07621  -3.60186
H    -0.62453   2.64541  -2.86050
H    -0.79247   1.22426  -1.84165
H     1.06115   1.40605  -2.93532
21
autodE path point 3. E = none charge = 1 mult = 1 
Sc    1.57262  -1.40057  -1.57720
C     0.43505  -0.68790   0.22755
N    -0.46618  -1.40078   0.92437
C    -0.87236  -0.71134   2.02942
C    -0.19863   0.45955   2.02724
N     0.61924   0.44314   0.93507
C     1.49495   1.54361   0.58645
H     1.79756   2.12446   1.45456
H     0.99747   2.21079  -0.11253
H     2.41827   1.17555   0.14485
C    -0.98699  -2.71391   0.58852
H    -0.45390  -3.11844  -0.26752
H    -2.04506  -2.64632   0.34461
H    -0.85552  -3.39036   1.42981
H    -1.60107  -1.09006   2.72546
H    -0.26488   1.28080   2.71989
C    -0.39401   1.64783  -2.78584
H    -0.97494   1.26076  -3.62157
H    -0.40829   2.73487  -2.80121
H    -0.84741   1.31107  -1.85492
H     1.03409   0.96726  -3.11704
21
autodE path point 4. E = none charge = 1 mult = 1 
Sc    1.74287  -1.45090  -1.40926
C     0.38408  -0.64305   0.20822
N    -0.48392  -1.38181   0.91865
C    -0.82891  -0.74107   2.07196
C    -0.16741   0.43638   2.07504
N     0.58738   0.46915   0.94015
C     1.45551   1.57310   0.59181
H     1.68181   2.23333   1.42567
H     0.97947   2.18392  -0.17090
H     2.41599   1.22676   0.21822
C    -1.00343  -2.69072   0.56588
H    -0.54851  -3.03515  -0.35866
H    -2.08086  -2.63226   0.42550
H    -0.78116  -3.40619   1.35393
H    -1.50949  -1.15608   2.79552
H    -0.19757   1.22323   2.80867
C    -0.36722   1.68520  -2.81824
H    -1.06593   1.52844  -3.64769
H    -0.06977   2.73257  -2.88537
H    -0.90310   1.51332  -1.88856
H     0.76018   0.33183  -3.22054
21
autodE path point 5. E = none charge = 1 mult = 1 
Sc    1.69059  -1.29189  -1.48782
C     0.35303  -0.59291   0.20898
N    -0.47611  -1.36812   0.92665
C    -0.79062  -0.76734   2.10958
C    -0.13604   0.41350   2.13150
N     0.56827   0.49839   0.96832
C     1.42730   1.61337   0.63518
H     1.55209   2.34322   1.43182
H     0.99198   2.15394  -0.20071
H     2.42903   1.28840   0.36518
C    -0.98719  -2.67518   0.55557
H    -0.58958  -2.97042  -0.41150
H    -2.07280  -2.63951   0.49046
H    -0.69297  -3.41916   1.29195
H    -1.44047  -1.21385   2.84268
H    -0.14071   1.16705   2.89982
C    -0.26073   1.68538  -2.86524
H    -0.95207   1.70314  -3.72419
H     0.22259   2.66446  -2.93366
H    -0.86739   1.66820  -1.95761
H     0.17182  -0.26065  -3.27696
21
autodE path point 6. E = none charge = 1 mult = 1 
Sc    1.63025  -1.23631  -1.54597
C     0.34341  -0.57670   0.20832
N    -0.46992  -1.36521   0.92993
C    -0.78329  -0.77282   2.11759
C    -0.12283   0.40470   2.15037
N     0.57277   0.50168   0.98268
C     1.42282   1.62333   0.64706
H     1.50964   2.37561   1.42789
H     1.00552   2.13588  -0.21507
H     2.43846   1.30966   0.41817
C    -0.97932  -2.67064   0.54999
H    -0.59857  -2.94866  -0.42902
H    -2.06607  -2.64114   0.50634
H    -0.66756  -3.42281   1.27071
H    -1.43391  -1.22335   2.84766
H    -0.12698   1.15244   2.92441
C    -0.23657   1.70070  -2.86384
H    -0.90005   1.70395  -3.74127
H     0.26258   2.67308  -2.92841
H    -0.86986   1.71390  -1.97487
H     0.06951  -0.43729  -3.28269
21
autodE path point 7. E = none charge = 1 mult = 1 
Sc    1.43574  -1.00773  -1.70940
C     0.31893  -0.54009   0.21044
N    -0.46238  -1.35734   0.93507
C    -0.74966  -0.79821   2.14549
C    -0.09363   0.38116   2.19432
N     0.55701   0.52150   1.00585
C     1.39804   1.65514   0.68473
H     1.39883   2.44793   1.42882
H     1.03315   2.11542  -0.22967
H     2.43500   1.35570   0.55133
C    -0.96754  -2.66022   0.54089
H    -0.63850  -2.89626  -0.46745
H    -2.05527  -2.65245   0.56203
H    -0.60060  -3.43072   1.21497
H    -1.37553  -1.27174   2.88266
H    -0.07053   1.10117   2.99384
C    -0.13651   1.67219  -2.87813
H    -0.75188   1.67543  -3.78787
H     0.43634   2.60447  -2.97019
H    -0.81494   1.80058  -2.03040
H    -0.29604  -0.71591  -3.27735
21
autodE path point 8. E = none charge = 1 mult = 1 
Sc    1.19520  -0.78000  -1.86028
C     0.28926  -0.50124   0.20941
N    -0.45928  -1.34712   0.93593
C    -0.70039  -0.83320   2.17652
C    -0.05228   0.34985   2.23979
N     0.53119   0.54508   1.02425
C     1.35563   1.69662   0.71951
H     1.24958   2.52407   1.41608
H     1.06213   2.10025  -0.24686
H     2.40800   1.42356   0.69412
C    -0.96476  -2.64471   0.52395
H    -0.71277  -2.82656  -0.51718
H    -2.04711  -2.66623   0.63206
H    -0.52739  -3.43397   1.13092
H    -1.28881  -1.33712   2.92435
H     0.01193   1.03631   3.06619
C    -0.02930   1.62776  -2.89820
H    -0.60111   1.60650  -3.83616
H     0.62412   2.49960  -3.02593
H    -0.73489   1.87590  -2.09752
H    -0.60894  -0.91535  -3.21094
21
autodE path point 9. E = none charge = 1 mult = 1 
Sc    0.93871  -0.64406  -1.95224
C     0.23775  -0.44703   0.20479
N    -0.46009  -1.33136   0.93631
C    -0.62075  -0.88319   2.21516
C     0.01165   0.30765   2.29078
N     0.49621   0.57452   1.04410
C     1.28218   1.75626   0.75039
H     1.02218   2.60405   1.37799
H     1.09446   2.08175  -0.27082
H     2.34379   1.54888   0.86219
C    -0.97202  -2.61849   0.50022
H    -0.84634  -2.72432  -0.57385
H    -2.03263  -2.68937   0.73042
H    -0.43838  -3.42752   0.99368
H    -1.14974  -1.43211   2.97559
H     0.13276   0.95498   3.14228
C     0.07337   1.58672  -2.92929
H    -0.46059   1.51901  -3.88595
H     0.82824   2.36486  -3.09254
H    -0.63729   1.96952  -2.18993
H    -0.84343  -1.07075  -3.12926
21
autodE path point 10. E = none charge = 1 mult = 1 
Sc    0.69769  -0.56991  -1.98566
C     0.14952  -0.38500   0.20526
N    -0.47034  -1.31865   0.94558
C    -0.51611  -0.94235   2.25647
C     0.08658   0.26420   2.33481
N     0.46630   0.59837   1.06649
C     1.19188   1.81641   0.76287
H     0.77235   2.65593   1.31125
H     1.11030   2.05861  -0.29380
H     2.24786   1.71414   1.00356
C    -0.99520  -2.59021   0.48004
H    -1.03791  -2.60361  -0.60610
H    -2.00776  -2.73033   0.85033
H    -0.36526  -3.40911   0.82034
H    -0.96562  -1.54394   3.02799
H     0.26134   0.88436   3.19734
C     0.16150   1.56359  -2.95679
H    -0.35104   1.46594  -3.92259
H     1.01384   2.22894  -3.13498
H    -0.53192   2.09126  -2.29304
H    -0.91797  -1.24863  -3.06935
21
autodE path point 11. E = none charge = 1 mult = 1 
Sc    0.31964  -0.36645  -2.08395
C     0.11613  -0.35340   0.20096
N    -0.46476  -1.31364   0.94353
C    -0.46454  -0.97586   2.26709
C     0.13186   0.23532   2.35675
N     0.47508   0.59590   1.08434
C     1.15514   1.83815   0.76221
H     0.65842   2.67072   1.25438
H     1.11969   2.01675  -0.30950
H     2.19357   1.80038   1.08526
C    -1.00751  -2.56363   0.43579
H    -1.14437  -2.50642  -0.64250
H    -1.97992  -2.75074   0.88449
H    -0.34103  -3.39101   0.67115
H    -0.88639  -1.60447   3.03283
H     0.32606   0.85626   3.21477
C     0.19416   1.56325  -2.95042
H    -0.27161   1.46880  -3.94099
H     1.14529   2.08843  -3.09899
H    -0.45523   2.23315  -2.37277
H    -0.81965  -1.54149  -2.79443
