30
Coordinates from ORCA-job 4_0_orca
  Lu  0.44307569000000      0.50239078000000     -0.32564162000000
  C   0.45687293000000      1.00686534000000      2.51318537000000
  C   1.33633145000000     -0.03991540000000      2.19917240000000
  C   2.32883708000000      0.47607483000000      1.36170705000000
  C   2.02668016000000      1.81185931000000      1.08663123000000
  C   0.76426363000000      2.06270738000000      1.64871768000000
  H   2.51947831000000      2.46608291000000      0.38465085000000
  H   0.21473020000000      2.98851563000000      1.61875129000000
  H   -0.36034065000000      0.98924666000000      3.21785319000000
  H   1.31958964000000     -1.01551292000000      2.65829992000000
  H   3.17604143000000     -0.08854901000000      1.01464634000000
  C   1.06363552000000     -0.14845506000000     -2.66178707000000
  C   -0.25105541000000     -0.64342119000000     -2.60518708000000
  C   1.01719810000000     -1.95049741000000     -1.28401945000000
  C   1.84730620000000     -0.97065229000000     -1.84239314000000
  H   1.33256069000000      0.78565545000000     -3.13142148000000
  C   -0.23113699000000     -1.87031818000000     -1.92889157000000
  H   -1.09775053000000     -0.28187925000000     -3.16495263000000
  H   2.88573010000000     -0.84452580000000     -1.58565120000000
  H   1.31233500000000     -2.77454784000000     -0.65284707000000
  H   -1.06553344000000     -2.54792609000000     -1.81155323000000
  C   -2.59763124000000     -1.75851922000000      1.47324960000000
  H   -2.37690876000000     -1.53398077000000      2.50789138000000
  H   -2.64172363000000     -2.76954833000000      1.10578933000000
  H   -3.39473936000000     -1.15664546000000      1.08087847000000
  C   -1.92962421000000      1.79785201000000     -0.74123767000000
  H   -1.52978169000000     -0.65622792000000      0.59682368000000
  H   -1.40911621000000      2.55603236000000     -1.33442402000000
  H   -2.53018782000000      2.31809397000000      0.00753845000000
  H   -2.62914622000000      1.28974717000000     -1.40577778000000
