30
Coordinates from ORCA-job 4_10_orca
  Lu  -0.09711014000000      0.15974539000000     -0.02589614000000
  C   0.43173023000000      0.77301796000000      2.49310012000000
  C   1.42930297000000     -0.22324382000000      2.15544848000000
  C   2.27141291000000      0.41616299000000      1.21838365000000
  C   1.77836168000000      1.68766082000000      0.94372997000000
  C   0.59683278000000      1.83833369000000      1.66110668000000
  H   2.25576092000000      2.40623014000000      0.28533972000000
  H   0.11148011000000      2.83210147000000      1.81201950000000
  H   -0.36608460000000      0.58003462000000      3.21096671000000
  H   1.65489063000000     -1.08366758000000      2.68818333000000
  H   3.24133211000000      0.05393417000000      0.90776167000000
  C   0.87081138000000     -0.08002085000000     -2.41208991000000
  C   -0.38532020000000     -0.72085919000000     -2.34491734000000
  C   1.06543880000000     -1.97764417000000     -1.12079498000000
  C   1.76358374000000     -0.87785558000000     -1.66866447000000
  H   1.14664608000000      0.78879175000000     -2.95724402000000
  C   -0.25841340000000     -1.90199129000000     -1.68149871000000
  H   -1.23229932000000     -0.41517587000000     -2.97646123000000
  H   2.81741004000000     -0.70159658000000     -1.61938315000000
  H   1.53972295000000     -2.83983980000000     -0.74035276000000
  H   -1.04959852000000     -2.61898455000000     -1.43944753000000
  C   -2.48223484000000     -1.30343897000000      1.14841383000000
  H   -2.20983817000000     -1.08095052000000      2.21860781000000
  H   -1.63864596000000     -2.06791448000000      0.77017891000000
  H   -3.56647367000000     -1.59098079000000      0.97518221000000
  C   -1.70525008000000      1.81981176000000     -0.86754127000000
  H   -2.29232733000000     -0.33314813000000      0.57841586000000
  H   -1.01942263000000      2.54544814000000     -1.33966771000000
  H   -2.33164964000000      2.44990867000000     -0.21540471000000
  H   -2.36598096000000      1.52077919000000     -1.69986727000000
