30
Coordinates from ORCA-job 4_12_orca
  Lu  0.00072501000000      0.19731686000000     -0.06642695000000
  C   0.43182759000000      0.68874642000000      2.50183857000000
  C   1.39641984000000     -0.16769763000000      2.13135364000000
  C   2.26927888000000      0.40353451000000      1.21915809000000
  C   1.78837486000000      1.67915482000000      0.91927640000000
  C   0.55694918000000      1.89976606000000      1.67065178000000
  H   2.22697930000000      2.39196195000000      0.28309244000000
  H   0.10979497000000      2.78084675000000      1.80134715000000
  H   -0.36518353000000      0.57417324000000      3.20754052000000
  H   1.67172966000000     -1.11418853000000      2.69882107000000
  H   3.21835682000000      0.05303486000000      0.88798721000000
  C   0.87552691000000     -0.09874214000000     -2.38162009000000
  C   -0.42721602000000     -0.69732402000000     -2.38309422000000
  C   1.02952298000000     -1.94858923000000     -1.13488739000000
  C   1.74262405000000     -0.86660898000000     -1.66443754000000
  H   1.13056437000000      0.80066661000000     -2.94713753000000
  C   -0.23815686000000     -1.93642709000000     -1.62682614000000
  H   -1.22466839000000     -0.42102940000000     -2.93348787000000
  H   2.80877506000000     -0.68923602000000     -1.60017397000000
  H   1.54622717000000     -2.84308187000000     -0.72447643000000
  H   -1.04786652000000     -2.62526996000000     -1.43703006000000
  C   -2.42591987000000     -1.18980553000000      1.11988359000000
  H   -2.23706180000000     -1.04884898000000      2.19994733000000
  H   -1.65523660000000     -2.01804312000000      0.72966817000000
  H   -3.53380095000000     -1.63599567000000      0.98757184000000
  C   -1.70278421000000      1.79104564000000     -0.85648232000000
  H   -2.30953577000000     -0.32994612000000      0.55537074000000
  H   -0.97315895000000      2.51017025000000     -1.31868142000000
  H   -2.32405032000000      2.42454410000000     -0.19374899000000
  H   -2.35480511000000      1.50510721000000     -1.69612749000000
