30
Coordinates from ORCA-job 4_13_orca
  Lu  -0.10735748000000      0.15826344000000     -0.02988456000000
  C   0.42946851000000      0.76094614000000      2.48852456000000
  C   1.41909384000000     -0.17343691000000      2.17030423000000
  C   2.29524536000000      0.41739524000000      1.23259884000000
  C   1.80746424000000      1.69807245000000      0.92897047000000
  C   0.61528036000000      1.91620274000000      1.68572388000000
  H   2.28615888000000      2.41425634000000      0.29997259000000
  H   0.12254613000000      2.84938678000000      1.79199421000000
  H   -0.36542470000000      0.62111293000000      3.21028709000000
  H   1.62097637000000     -1.09935766000000      2.69387950000000
  H   3.24643158000000      0.03734192000000      0.92054067000000
  C   0.89692271000000     -0.08536500000000     -2.42422549000000
  C   -0.38679175000000     -0.70555930000000     -2.41429359000000
  C   1.05626405000000     -1.98320959000000     -1.16779997000000
  C   1.77721878000000     -0.87771305000000     -1.68481730000000
  H   1.16886582000000      0.79121112000000     -2.98248117000000
  C   -0.24709234000000     -1.89911328000000     -1.67076691000000
  H   -1.21784047000000     -0.40315683000000     -2.99811602000000
  H   2.83615216000000     -0.71801230000000     -1.62008453000000
  H   1.52396657000000     -2.84798101000000     -0.72133028000000
  H   -1.05246163000000     -2.60769075000000     -1.47528663000000
  C   -2.46042104000000     -1.32162535000000      1.17091745000000
  H   -2.22029517000000     -1.14459151000000      2.22648954000000
  H   -1.73740399000000     -2.17170450000000      0.82635642000000
  H   -3.54291628000000     -1.52910492000000      0.97655333000000
  C   -1.71770251000000      1.81441414000000     -0.85521034000000
  H   -2.26936403000000     -0.38137888000000      0.61019584000000
  H   -1.07257194000000      2.56528219000000     -1.34873976000000
  H   -2.34533877000000      2.44247725000000     -0.20693369000000
  H   -2.38730384000000      1.50749825000000     -1.66915630000000
