30
Coordinates from ORCA-job 4_14_orca
  Lu  0.04417449000000      0.22481590000000     -0.09385028000000
  C   0.40990302000000      0.74042681000000      2.48784481000000
  C   1.41058391000000     -0.18705511000000      2.14926630000000
  C   2.27222697000000      0.41750359000000      1.22663842000000
  C   1.78070547000000      1.68518527000000      0.94435845000000
  C   0.60543760000000      1.87575490000000      1.67636298000000
  H   2.25461891000000      2.40541099000000      0.28095381000000
  H   0.09947261000000      2.81663359000000      1.78625908000000
  H   -0.36507044000000      0.60256828000000      3.20843427000000
  H   1.63927783000000     -1.09835810000000      2.68626433000000
  H   3.21561295000000      0.03501262000000      0.89174549000000
  C   0.87056884000000     -0.09529496000000     -2.41255750000000
  C   -0.37749846000000     -0.71615164000000     -2.38386873000000
  C   1.05038555000000     -1.96079352000000     -1.14592663000000
  C   1.75597762000000     -0.87548539000000     -1.66987155000000
  H   1.14551695000000      0.80097106000000     -2.95951323000000
  C   -0.27097152000000     -1.91449917000000     -1.65408100000000
  H   -1.23765481000000     -0.40107781000000     -2.95880605000000
  H   2.81425673000000     -0.69934581000000     -1.59312907000000
  H   1.52286811000000     -2.83042254000000     -0.71351236000000
  H   -1.04377953000000     -2.61843814000000     -1.46574712000000
  C   -2.42161617000000     -1.25831934000000      1.13364385000000
  H   -2.25074138000000     -1.07872566000000      2.21865143000000
  H   -1.75139940000000     -2.04420258000000      0.76181802000000
  H   -3.49925599000000     -1.59643660000000      0.99746606000000
  C   -1.70964709000000      1.78330563000000     -0.84207994000000
  H   -2.26208974000000     -0.33425611000000      0.54783645000000
  H   -1.00353369000000      2.50180886000000     -1.31167662000000
  H   -2.33623127000000      2.40562275000000     -0.17161048000000
  H   -2.37498008000000      1.48152705000000     -1.67007603000000
