30
Coordinates from ORCA-job 4_4_orca
  Lu  0.12673473000000      0.31466692000000     -0.18832362000000
  C   0.38525283000000      0.92763927000000      2.44437836000000
  C   1.41048587000000     -0.05715004000000      2.23078825000000
  C   2.32436886000000      0.46484678000000      1.35020202000000
  C   1.92378237000000      1.76307097000000      0.98988034000000
  C   0.79580536000000      2.07323714000000      1.75502783000000
  H   2.48959728000000      2.47959936000000      0.35532566000000
  H   0.16904133000000      2.99794218000000      1.66477108000000
  H   -0.35732235000000      0.88451879000000      3.21772040000000
  H   1.39498533000000     -1.06907550000000      2.67487072000000
  H   3.25637266000000     -0.07370067000000      0.98546740000000
  C   0.99909708000000     -0.11069770000000     -2.56733768000000
  C   -0.25840971000000     -0.70419287000000     -2.63468203000000
  C   1.06873754000000     -2.00559122000000     -1.33470610000000
  C   1.81785877000000     -0.94034083000000     -1.77697622000000
  H   1.30648770000000      0.79853990000000     -3.11775322000000
  C   -0.28180598000000     -1.82346558000000     -1.77327097000000
  H   -1.15553837000000     -0.30371090000000     -3.14592377000000
  H   2.92875636000000     -0.81260171000000     -1.60717992000000
  H   1.38104160000000     -2.81727651000000     -0.65128853000000
  H   -1.05442862000000     -2.55444944000000     -1.71985937000000
  C   -2.36688781000000     -1.48921511000000      1.26534205000000
  H   -2.32974447000000     -1.49498305000000      2.38664626000000
  H   -2.41709293000000     -2.65296972000000      1.11191837000000
  H   -3.42627546000000     -1.22291375000000      1.03529166000000
  C   -1.82610849000000      1.79023966000000     -0.77024339000000
  H   -1.93882892000000     -0.71908127000000      0.74553971000000
  H   -1.35556580000000      2.60971297000000     -1.36511986000000
  H   -2.47179640000000      2.37528035000000     -0.07835411000000
  H   -2.55969022000000      1.36824613000000     -1.48499122000000
