30
Coordinates from ORCA-job 4_5_orca
  Lu  0.05581897000000      0.27427862000000     -0.15206356000000
  C   0.38662241000000      0.90683578000000      2.44135657000000
  C   1.41668868000000     -0.07238741000000      2.23565193000000
  C   2.33424564000000      0.45677851000000      1.33363422000000
  C   1.90871488000000      1.75832719000000      0.96938273000000
  C   0.78135504000000      2.06940083000000      1.75957940000000
  H   2.47025315000000      2.47409908000000      0.35150378000000
  H   0.16289996000000      2.98913718000000      1.68166998000000
  H   -0.36024615000000      0.85265373000000      3.21873664000000
  H   1.41966052000000     -1.07660482000000      2.67828018000000
  H   3.26263732000000     -0.06052602000000      0.98166068000000
  C   0.98805854000000     -0.09847943000000     -2.55157117000000
  C   -0.27478626000000     -0.70714084000000     -2.62154121000000
  C   1.07230591000000     -2.01679021000000     -1.32395092000000
  C   1.82472847000000     -0.92915610000000     -1.76339527000000
  H   1.29285293000000      0.79508773000000     -3.10486803000000
  C   -0.27687055000000     -1.82236796000000     -1.75242784000000
  H   -1.16533987000000     -0.31510621000000     -3.13605550000000
  H   2.92186836000000     -0.80395473000000     -1.61365813000000
  H   1.39987097000000     -2.82541071000000     -0.65817923000000
  H   -1.05737213000000     -2.56067662000000     -1.68941347000000
  C   -2.37542813000000     -1.50360905000000      1.26510771000000
  H   -2.31131840000000     -1.46523048000000      2.33511218000000
  H   -2.33769662000000     -2.57979006000000      1.10050313000000
  H   -3.42593048000000     -1.24545503000000      1.02416197000000
  C   -1.81202352000000      1.79874275000000     -0.78161871000000
  H   -2.00572060000000     -0.68913277000000      0.74851251000000
  H   -1.33495336000000      2.61519837000000     -1.36863283000000
  H   -2.45092432000000      2.38633536000000     -0.10676597000000
  H   -2.53566872000000      1.39281069000000     -1.50565730000000
