30
Coordinates from ORCA-job 4_7_orca
  Lu  -0.18038878000000      0.13552296000000     -0.01450707000000
  C   0.42064883000000      0.82116858000000      2.46506239000000
  C   1.43337456000000     -0.14824705000000      2.21851598000000
  C   2.33295836000000      0.43224951000000      1.25753904000000
  C   1.84332106000000      1.72443959000000      0.92637328000000
  C   0.68619983000000      1.98365979000000      1.72315947000000
  H   2.36074804000000      2.43920687000000      0.32519530000000
  H   0.13817583000000      2.92287416000000      1.76412392000000
  H   -0.36659417000000      0.69612924000000      3.21488615000000
  H   1.54779664000000     -1.09374518000000      2.69043572000000
  H   3.27133554000000      0.00746452000000      0.95588003000000
  C   0.93450540000000     -0.07481245000000     -2.47369537000000
  C   -0.34939757000000     -0.70881152000000     -2.49568902000000
  C   1.07480525000000     -2.02294127000000     -1.23188106000000
  C   1.81697350000000     -0.88763411000000     -1.71315347000000
  H   1.21826903000000      0.78429151000000     -3.03101878000000
  C   -0.24781605000000     -1.85475052000000     -1.70074125000000
  H   -1.20291975000000     -0.37502891000000     -3.06872404000000
  H   2.87262263000000     -0.75544918000000     -1.63393041000000
  H   1.48751277000000     -2.85188043000000     -0.70306221000000
  H   -1.06038796000000     -2.58766615000000     -1.54012095000000
  C   -2.46907297000000     -1.42866396000000      1.22555395000000
  H   -2.22416195000000     -1.27975360000000      2.24604247000000
  H   -1.90865891000000     -2.37415664000000      0.95473653000000
  H   -3.50338648000000     -1.39338419000000      0.97638544000000
  C   -1.74262363000000      1.82704608000000     -0.84131049000000
  H   -2.21549099000000     -0.47576229000000      0.68314025000000
  H   -1.19718549000000      2.61829483000000     -1.37526791000000
  H   -2.37562081000000      2.44510985000000     -0.20505720000000
  H   -2.43367760000000      1.49306119000000     -1.61735711000000
