30
Coordinates from ORCA-job 4_8_orca
  Lu  -0.19023901000000      0.12364245000000      0.00734045000000
  C   0.44053069000000      0.76203675000000      2.50525756000000
  C   1.41986124000000     -0.16508099000000      2.16881122000000
  C   2.30324256000000      0.41575167000000      1.22762158000000
  C   1.81307851000000      1.69570896000000      0.93264464000000
  C   0.61006155000000      1.92092746000000      1.67247189000000
  H   2.29291102000000      2.41852485000000      0.30229119000000
  H   0.13189309000000      2.85831857000000      1.80321509000000
  H   -0.36233675000000      0.61735840000000      3.20488295000000
  H   1.62356081000000     -1.10440233000000      2.69976025000000
  H   3.25855989000000      0.04483852000000      0.93081328000000
  C   0.89902067000000     -0.08858059000000     -2.42352098000000
  C   -0.38622138000000     -0.69237208000000     -2.40642202000000
  C   1.05779643000000     -1.97709298000000     -1.16762382000000
  C   1.78335174000000     -0.87904650000000     -1.68998148000000
  H   1.17463611000000      0.79021113000000     -2.98852484000000
  C   -0.24707520000000     -1.91389136000000     -1.68102569000000
  H   -1.21427004000000     -0.40916871000000     -3.01182819000000
  H   2.84209226000000     -0.72121404000000     -1.63266802000000
  H   1.53339301000000     -2.86218738000000     -0.72597576000000
  H   -1.04903127000000     -2.59750016000000     -1.46766196000000
  C   -2.48091817000000     -1.39165270000000      1.19249608000000
  H   -2.19225056000000     -1.14558989000000      2.25147568000000
  H   -1.68354834000000     -2.20786909000000      0.83293980000000
  H   -3.61363312000000     -1.50844334000000      0.95569676000000
  C   -1.71319682000000      1.82766743000000     -0.86440099000000
  H   -2.26838816000000     -0.35522483000000      0.61348507000000
  H   -1.08862362000000      2.59500131000000     -1.36755512000000
  H   -2.34434824000000      2.46323957000000     -0.22603072000000
  H   -2.38612060000000      1.52417835000000     -1.67967579000000
