21
Coordinates from ORCA-job 1_0_orca
  C   -1.90098955000000      0.13810047000000     -0.14521207000000
  C   -1.57771654000000     -0.60217083000000     -1.27142061000000
  C   -0.78933167000000     -1.73447790000000     -1.15605107000000
  C   -0.29963675000000     -2.11130854000000      0.08279356000000
  C   -1.43197734000000     -0.26549495000000      1.09495894000000
  C   -0.60058712000000     -1.36668968000000      1.21204513000000
  H   -2.53823194000000      1.00510204000000     -0.26125708000000
  H   -1.96337938000000     -0.31937149000000     -2.24166434000000
  H   -0.57142060000000     -2.33383445000000     -2.03139173000000
  H   -0.19070374000000     -1.66787008000000      2.16709225000000
  H   0.31542474000000     -2.99734521000000      0.16580621000000
  Pd  1.41765256000000      1.23630842000000      0.01449441000000
  O   2.26634671000000      0.63136630000000     -1.73688253000000
  O   2.61100500000000     -0.41682738000000      0.11790219000000
  O   0.31019931000000      2.94127653000000     -0.08681342000000
  C   0.17853977000000      2.97966563000000      1.15843408000000
  O   0.73908314000000      2.08391431000000      1.84703712000000
  H   -1.78339313000000      0.41261516000000      2.19227579000000
  C   2.79586560000000     -0.32594462000000     -1.12140806000000
  H   3.43660232000000     -1.04612916000000     -1.64180697000000
  H   -0.42335021000000      3.75910542000000      1.64107061000000
