21
Coordinates from ORCA-job 1_11_orca
  C   -1.89574727000000      0.14950962000000     -0.14664152000000
  C   -1.66208570000000     -0.64575550000000     -1.27043033000000
  C   -0.91672746000000     -1.80161882000000     -1.13734191000000
  C   -0.36568369000000     -2.16582332000000      0.07547217000000
  C   -1.37301572000000     -0.23915495000000      1.06502420000000
  C   -0.59060691000000     -1.36235919000000      1.19485734000000
  H   -2.48709234000000      1.07058260000000     -0.22634896000000
  H   -2.07168178000000     -0.32816815000000     -2.22188256000000
  H   -0.76638027000000     -2.42204183000000     -1.98390878000000
  H   -0.15497590000000     -1.61874850000000      2.16814140000000
  H   0.24034886000000     -3.05641217000000      0.19593933000000
  Pd  1.48274534000000      1.29810597000000      0.06029451000000
  O   2.29772747000000      0.69402427000000     -1.67849340000000
  O   2.63029381000000     -0.39380735000000      0.15226392000000
  O   0.33959490000000      2.95642540000000     -0.09550791000000
  C   0.17095678000000      2.94824355000000      1.14866901000000
  O   0.70908970000000      2.02443562000000      1.81943574000000
  H   -1.56909337000000      0.35049404000000      1.93012325000000
  C   2.84874881000000     -0.26145735000000     -1.07584266000000
  H   3.53317199000000     -0.92867879000000     -1.60259328000000
  H   -0.42179854000000      3.73308764000000      1.63468605000000
