21
Coordinates from ORCA-job 1_12_orca
  C   -1.89833565000000      0.15110000000000     -0.15006533000000
  C   -1.66905195000000     -0.63233939000000     -1.26499628000000
  C   -0.91789246000000     -1.80334492000000     -1.13869159000000
  C   -0.36365786000000     -2.16359233000000      0.09144022000000
  C   -1.37560966000000     -0.23117477000000      1.07629029000000
  C   -0.58931719000000     -1.36669726000000      1.19676801000000
  H   -2.48063910000000      1.05984391000000     -0.22540671000000
  H   -2.07593536000000     -0.33138988000000     -2.23677244000000
  H   -0.76454527000000     -2.43457187000000     -2.00087399000000
  H   -0.16038377000000     -1.61682893000000      2.15733348000000
  H   0.24589800000000     -3.06947888000000      0.18969982000000
  Pd  1.47787668000000      1.29751121000000      0.06548880000000
  O   2.29545052000000      0.69299735000000     -1.68104823000000
  O   2.63250444000000     -0.38933260000000      0.15526750000000
  O   0.34391370000000      2.96043712000000     -0.09657136000000
  C   0.17261050000000      2.94877395000000      1.15105981000000
  O   0.70890548000000      2.02625067000000      1.81300838000000
  H   -1.56893089000000      0.36391378000000      1.94488780000000
  C   2.85305223000000     -0.25897170000000     -1.07425502000000
  H   3.53333178000000     -0.93141569000000     -1.60441079000000
  H   -0.42219837000000      3.73026410000000      1.63696071000000
