21
Coordinates from ORCA-job 1_14_orca
  C   -1.89907441000000      0.15104121000000     -0.15120957000000
  C   -1.67246104000000     -0.63507703000000     -1.26627624000000
  C   -0.92287243000000     -1.80545776000000     -1.13793364000000
  C   -0.36691497000000     -2.16635695000000      0.09039009000000
  C   -1.37268723000000     -0.22536648000000      1.07993176000000
  C   -0.59133715000000     -1.36897719000000      1.19729516000000
  H   -2.47571431000000      1.05598531000000     -0.22766735000000
  H   -2.07608869000000     -0.34380171000000     -2.23060335000000
  H   -0.77128192000000     -2.44797127000000     -2.01239958000000
  H   -0.15953635000000     -1.61723903000000      2.15006298000000
  H   0.23361659000000     -3.06605681000000      0.18041484000000
  Pd  1.47546970000000      1.29408981000000      0.06523923000000
  O   2.29513940000000      0.69361619000000     -1.67893615000000
  O   2.63524580000000     -0.38173197000000      0.15749734000000
  O   0.34837402000000      2.96707194000000     -0.09375970000000
  C   0.17360069000000      2.95269645000000      1.15238864000000
  O   0.70861036000000      2.02762631000000      1.81076594000000
  H   -1.56265761000000      0.37887112000000      1.95679559000000
  C   2.86243450000000     -0.25288284000000     -1.07207062000000
  H   3.53868873000000     -0.93422788000000     -1.60555332000000
  H   -0.42516898000000      3.72807837000000      1.63917148000000
