21
Coordinates from ORCA-job 1_15_orca
  C   -1.89579942000000      0.14739004000000     -0.14678402000000
  C   -1.66732819000000     -0.64478306000000     -1.26784211000000
  C   -0.92097734000000     -1.80976713000000     -1.14490961000000
  C   -0.37119732000000     -2.16567031000000      0.07987344000000
  C   -1.37428646000000     -0.21944599000000      1.08817696000000
  C   -0.59669390000000     -1.36528202000000      1.19531984000000
  H   -2.47730086000000      1.05594650000000     -0.23130988000000
  H   -2.07350112000000     -0.35244493000000     -2.22741283000000
  H   -0.77146597000000     -2.44736368000000     -2.01225738000000
  H   -0.15781969000000     -1.62114405000000      2.15019385000000
  H   0.22737623000000     -3.06246537000000      0.17293068000000
  Pd  1.47079817000000      1.29079393000000      0.06097295000000
  O   2.29507440000000      0.69116242000000     -1.67913735000000
  O   2.63933022000000     -0.37696686000000      0.15722808000000
  O   0.35089224000000      2.97257074000000     -0.09212896000000
  C   0.17557623000000      2.95620668000000      1.15284195000000
  O   0.70972552000000      2.03026469000000      1.81261798000000
  H   -1.56369265000000      0.38925462000000      1.96963485000000
  C   2.86614160000000     -0.25246720000000     -1.07249320000000
  H   3.53819715000000     -0.93850081000000     -1.60583670000000
  H   -0.42849474000000      3.72839004000000      1.64216529000000
