21
Coordinates from ORCA-job 1_1_orca
  C   -1.90006086000000      0.14520847000000     -0.15229163000000
  C   -1.59090348000000     -0.61467464000000     -1.28029194000000
  C   -0.81548838000000     -1.75635425000000     -1.16167034000000
  C   -0.30774801000000     -2.12709536000000      0.07374524000000
  C   -1.46049598000000     -0.16360988000000      1.23472329000000
  C   -0.59363061000000     -1.36899759000000      1.20980622000000
  H   -2.52099559000000      1.01310618000000     -0.26563505000000
  H   -1.98620443000000     -0.33047269000000     -2.24154864000000
  H   -0.61904305000000     -2.36213120000000     -2.02735281000000
  H   -0.17391117000000     -1.66101755000000      2.15472319000000
  H   0.29296573000000     -3.01469890000000      0.16321205000000
  Pd  1.41642914000000      1.25152280000000      0.04722172000000
  O   2.28281205000000      0.65029191000000     -1.73053364000000
  O   2.60258814000000     -0.41481727000000      0.11615891000000
  O   0.31261860000000      2.93843272000000     -0.10342389000000
  C   0.18487894000000      2.95745674000000      1.18666085000000
  O   0.72868682000000      2.08854031000000      1.83282713000000
  H   -1.71870763000000      0.34836664000000      2.06395705000000
  C   2.83023883000000     -0.31649961000000     -1.11718043000000
  H   3.46579921000000     -1.02841258000000     -1.63824533000000
  H   -0.43156264000000      3.76405341000000      1.63610171000000
