21
Coordinates from ORCA-job 1_2_orca
  C   -1.90055180000000      0.14145093000000     -0.14854912000000
  C   -1.58393239000000     -0.60806468000000     -1.27560224000000
  C   -0.80166101000000     -1.74478963000000     -1.15869980000000
  C   -0.30346011000000     -2.11874988000000      0.07852850000000
  C   -1.44542000000000     -0.21746997000000      1.16083887000000
  C   -0.59730807000000     -1.36777755000000      1.21098979000000
  H   -2.53010734000000      1.00887491000000     -0.26332070000000
  H   -1.97413829000000     -0.32460420000000     -2.24160980000000
  H   -0.59386812000000     -2.34717253000000     -2.02948792000000
  H   -0.18278833000000     -1.66464004000000      2.16126192000000
  H   0.30483836000000     -3.00552512000000      0.16458342000000
  Pd  1.41707589000000      1.24347994000000      0.02992089000000
  O   2.27410788000000      0.64028716000000     -1.73388989000000
  O   2.60703759000000     -0.41587988000000      0.11708047000000
  O   0.31133968000000      2.93993606000000     -0.09464300000000
  C   0.18152782000000      2.96919715000000      1.17173917000000
  O   0.73418269000000      2.08609484000000      1.84033904000000
  H   -1.75290270000000      0.38233070000000      2.13179091000000
  C   2.81206791000000     -0.32149258000000     -1.11941531000000
  H   3.45036469000000     -1.03777820000000     -1.64012814000000
  H   -0.42722126000000      3.76143772000000      1.63872845000000
