21
Coordinates from ORCA-job 1_4_orca
  C   -1.89336870000000      0.14707878000000     -0.10844033000000
  C   -1.59828709000000     -0.61675509000000     -1.26498410000000
  C   -0.82870299000000     -1.76531806000000     -1.16084969000000
  C   -0.32112509000000     -2.11922122000000      0.07919441000000
  C   -1.43908899000000     -0.18768811000000      1.18653092000000
  C   -0.61662106000000     -1.33339935000000      1.22099101000000
  H   -2.51588452000000      1.02097965000000     -0.27005563000000
  H   -1.99750424000000     -0.33317191000000     -2.24083884000000
  H   -0.64040586000000     -2.37793791000000     -2.02925248000000
  H   -0.16421033000000     -1.66116181000000      2.15197014000000
  H   0.28414958000000     -3.02310978000000      0.16442550000000
  Pd  1.42249732000000      1.25962003000000      0.05603580000000
  O   2.28979021000000      0.65352151000000     -1.72210990000000
  O   2.60026092000000     -0.41413315000000      0.11710136000000
  O   0.31375900000000      2.93595860000000     -0.08973079000000
  C   0.17468157000000      2.96914981000000      1.16391987000000
  O   0.73394136000000      2.06972170000000      1.84051318000000
  H   -1.69353021000000      0.33284887000000      2.02480649000000
  C   2.83547729000000     -0.29989973000000     -1.11284902000000
  H   3.48154186000000     -1.02117588000000     -1.63771148000000
  H   -0.43100053000000      3.76158533000000      1.63311441000000
