21
Coordinates from ORCA-job 1_5_orca
  C   -1.89163441000000      0.14826708000000     -0.09466898000000
  C   -1.60609738000000     -0.61382344000000     -1.24853403000000
  C   -0.83889819000000     -1.76932994000000     -1.15751332000000
  C   -0.33202798000000     -2.11073302000000      0.08984366000000
  C   -1.41499784000000     -0.22542010000000      1.12056492000000
  C   -0.62340614000000     -1.32259189000000      1.22422494000000
  H   -2.51120922000000      1.02542963000000     -0.27034339000000
  H   -2.00451305000000     -0.33464112000000     -2.23540681000000
  H   -0.65528867000000     -2.38906696000000     -2.03063707000000
  H   -0.15979687000000     -1.65888673000000      2.14951737000000
  H   0.27583385000000     -3.02467218000000      0.16685950000000
  Pd  1.42984129000000      1.26340883000000      0.05843413000000
  O   2.29277700000000      0.65865760000000     -1.71679914000000
  O   2.59994011000000     -0.41337451000000      0.11976217000000
  O   0.31455578000000      2.93567849000000     -0.08375824000000
  C   0.17119187000000      2.97081908000000      1.15681831000000
  O   0.73297355000000      2.06269149000000      1.84109528000000
  H   -1.68432468000000      0.34106784000000      2.02685677000000
  C   2.83853216000000     -0.29173177000000     -1.10900805000000
  H   3.49141651000000     -1.01371133000000     -1.63583248000000
  H   -0.43008472000000      3.75927051000000      1.63100596000000
