21
Coordinates from ORCA-job 1_9_orca
  C   -1.89992770000000      0.15055337000000     -0.14723590000000
  C   -1.63673848000000     -0.63367497000000     -1.26133276000000
  C   -0.88204247000000     -1.78113892000000     -1.13934258000000
  C   -0.35048997000000     -2.14196176000000      0.07984944000000
  C   -1.38959689000000     -0.23632717000000      1.08434910000000
  C   -0.59200112000000     -1.36497477000000      1.20371909000000
  H   -2.50028160000000      1.05532788000000     -0.24593228000000
  H   -2.03246843000000     -0.33273153000000     -2.20020664000000
  H   -0.71769527000000     -2.40174019000000     -1.99682353000000
  H   -0.15464449000000     -1.63639568000000      2.16417460000000
  H   0.24173524000000     -3.01749439000000      0.18714271000000
  Pd  1.46594228000000      1.27981973000000      0.05283905000000
  O   2.29543847000000      0.68195457000000     -1.69392653000000
  O   2.61350858000000     -0.40540797000000      0.13663226000000
  O   0.32417747000000      2.94477737000000     -0.09102736000000
  C   0.17127327000000      2.95442684000000      1.15880466000000
  O   0.71699983000000      2.04551076000000      1.83066909000000
  H   -1.62036806000000      0.33493351000000      1.96075705000000
  C   2.84292444000000     -0.27826403000000     -1.09164442000000
  H   3.51536825000000     -0.96562135000000     -1.61639814000000
  H   -0.42511559000000      3.74703078000000      1.62997056000000
