21
Coordinates from ORCA-job 4_2_orca
  Sc  1.12267277000000     -0.79622225000000     -1.97052955000000
  C   0.37655951000000     -0.56135929000000      0.24969153000000
  N   -0.47568717000000     -1.34282733000000      0.93406089000000
  C   -0.76624155000000     -0.80900381000000      2.15991582000000
  C   -0.13395418000000      0.40434559000000      2.21747856000000
  N   0.54754798000000      0.53099350000000      1.02757664000000
  C   1.41488313000000      1.66292901000000      0.64283052000000
  H   1.41005495000000      2.37412167000000      1.47198400000000
  H   1.03352249000000      2.15528141000000     -0.24808028000000
  H   2.44184648000000      1.33140612000000      0.51920998000000
  C   -0.96612919000000     -2.65166218000000      0.54212434000000
  H   -0.63696302000000     -2.91429251000000     -0.46288554000000
  H   -2.05442814000000     -2.66192377000000      0.53139320000000
  H   -0.61951745000000     -3.41784552000000      1.23757827000000
  H   -1.37821054000000     -1.26548503000000      2.87687649000000
  H   -0.08617813000000      1.13261811000000      2.96309377000000
  C   -0.16250437000000      1.62052453000000     -2.85656220000000
  H   -0.81906670000000      1.57523040000000     -3.71704083000000
  H   0.51521047000000      2.46527650000000     -2.97684667000000
  H   -0.76920797000000      1.69430073000000     -1.97849466000000
  H   0.00713269000000     -0.52349221000000     -3.16497258000000
