21
Coordinates from ORCA-job 4_3_orca
  Sc  1.13729259000000     -0.78608414000000     -1.96200634000000
  C   0.38700420000000     -0.56804126000000      0.25077021000000
  N   -0.47125373000000     -1.34723533000000      0.93664486000000
  C   -0.76652378000000     -0.78349768000000      2.14696501000000
  C   -0.14011783000000      0.38936255000000      2.19265653000000
  N   0.55979698000000      0.52580723000000      1.01583733000000
  C   1.41001504000000      1.65132193000000      0.65033006000000
  H   1.43126118000000      2.35039731000000      1.46981745000000
  H   1.02522485000000      2.15976516000000     -0.25368506000000
  H   2.44764714000000      1.31606812000000      0.48729195000000
  C   -0.97130397000000     -2.65368035000000      0.54435553000000
  H   -0.62758149000000     -2.92216650000000     -0.45579901000000
  H   -2.05687650000000     -2.65779889000000      0.51886829000000
  H   -0.63463741000000     -3.41398043000000      1.24812526000000
  H   -1.40255431000000     -1.26319261000000      2.87882850000000
  H   -0.09961704000000      1.16053642000000      2.96296611000000
  C   -0.18081129000000      1.59469322000000     -2.85192516000000
  H   -0.85216798000000      1.56486135000000     -3.71026560000000
  H   0.50018705000000      2.45770891000000     -2.96778531000000
  H   -0.78464835000000      1.67492258000000     -1.94909553000000
  H   0.09159042000000     -0.44594308000000     -3.15414250000000
