21
Coordinates from ORCA-job 4_5_orca
  Sc  1.14117028000000     -0.78003841000000     -1.96094358000000
  C   0.39229673000000     -0.57239187000000      0.25095091000000
  N   -0.46923177000000     -1.34860279000000      0.93681494000000
  C   -0.77191908000000     -0.77994258000000      2.14411534000000
  C   -0.14083844000000      0.39344534000000      2.18758506000000
  N   0.56376048000000      0.52206515000000      1.01279730000000
  C   1.41088311000000      1.64619061000000      0.64731026000000
  H   1.44072678000000      2.33990437000000      1.47079849000000
  H   1.02190398000000      2.16090022000000     -0.25437043000000
  H   2.44859718000000      1.30964928000000      0.47300919000000
  C   -0.97271142000000     -2.65406212000000      0.54501109000000
  H   -0.62350205000000     -2.92584294000000     -0.45233039000000
  H   -2.05835636000000     -2.65584147000000      0.51290863000000
  H   -0.64179021000000     -3.41238937000000      1.25331860000000
  H   -1.41109491000000     -1.25958706000000      2.87654507000000
  H   -0.10613972000000      1.16913166000000      2.95793651000000
  C   -0.18863844000000      1.58589287000000     -2.84727694000000
  H   -0.86710441000000      1.55887833000000     -3.70617177000000
  H   0.49152272000000      2.45131518000000     -2.96322337000000
  H   -0.79057491000000      1.66504371000000     -1.93759174000000
  H   0.13324780000000     -0.40943778000000     -3.14835030000000
