9
Coordinates from ORCA-job 2_0_orca
  Pt  -1.11414142000000     -0.94588812000000      0.58254307000000
  Cl  -0.28669878000000     -0.71907375000000      2.76014116000000
  Cl  -2.74831316000000     -2.41607046000000      1.17731218000000
  Cl  -1.78362123000000     -1.00276847000000     -1.65421429000000
  C   1.13347233000000      1.05029313000000     -0.61952397000000
  H   1.44853893000000      2.00662011000000     -0.21587491000000
  H   1.31773093000000      0.18136187000000      0.42839551000000
  H   1.85566278000000      0.66857529000000     -1.33886371000000
  H   0.17736963000000      1.17694342000000     -1.11990901000000
