9
Coordinates from ORCA-job 2_7_orca
  Pt  -1.07572062000000     -0.93183072000000      0.55807875000000
  Cl  -0.26973132000000     -0.63086756000000      2.70161822000000
  Cl  -2.71524403000000     -2.32028323000000      1.18357899000000
  Cl  -1.66811915000000     -1.03904254000000     -1.67052787000000
  C   1.13790153000000      0.98507446000000     -0.55672153000000
  H   1.48858273000000      1.91498466000000     -0.07805295000000
  H   1.17432628000000      0.18645689000000      0.18739952000000
  H   1.79111276000000      0.70018700000000     -1.38683874000000
  H   0.12427181000000      1.13734375000000     -0.94043434000000
