38
Coordinates from ORCA-job 4_0_orca
  Pd  0.39428355000000      0.12929172000000     -0.28054362000000
  O   1.92631304000000      1.38755782000000      0.66410132000000
  C   1.77574811000000      2.57261903000000      0.37475321000000
  O   0.64594949000000      2.90833861000000     -0.15457185000000
  C   2.75715443000000      3.67477836000000      0.61286449000000
  H   2.31750276000000      4.57333956000000      1.04332048000000
  H   3.17365254000000      3.96454560000000     -0.35392771000000
  H   3.55489297000000      3.32288721000000      1.25941082000000
  N   -1.38926996000000     -0.79367681000000     -0.94315005000000
  C   -1.22693468000000     -1.96495898000000     -1.83243904000000
  H   -0.71360104000000     -1.74831659000000     -2.76310864000000
  H   -2.19291673000000     -2.33058667000000     -2.21415323000000
  H   -0.63832399000000     -2.69653909000000     -1.29146589000000
  C   -2.03807990000000      0.21731904000000     -1.78762683000000
  H   -2.21121192000000      1.14808525000000     -1.26025066000000
  H   -3.02727425000000     -0.10699266000000     -2.14086810000000
  H   -1.44249278000000      0.45564139000000     -2.66463897000000
  C   -1.57229930000000     -1.13397762000000      1.44195815000000
  C   -1.51210074000000     -2.20652341000000      2.32517874000000
  C   -1.34551200000000     -2.05204061000000      3.68929607000000
  C   -1.01101786000000     -0.80350768000000      4.17454331000000
  C   -1.21565313000000      0.28209975000000      3.33546890000000
  C   -1.48913970000000      0.14217065000000      1.98759416000000
  H   -0.82703447000000     -0.66802096000000      5.23268034000000
  H   -1.01644623000000      1.24598753000000      3.78831867000000
  H   -1.93401836000000     -3.17864793000000      2.06973957000000
  H   -1.40261913000000     -2.87368050000000      4.39357132000000
  H   -1.67103160000000      3.78902932000000      1.15703538000000
  C   -2.32149669000000     -1.19629945000000      0.14389021000000
  H   -3.24329433000000     -0.59618445000000      0.20712175000000
  H   -2.77671190000000     -2.19376364000000      0.05245524000000
  O   1.86118088000000     -0.03017708000000     -1.56366578000000
  C   2.23455424000000     -0.37291752000000     -2.72571634000000
  O   1.59025731000000     -1.23584756000000     -3.29118784000000
  C   3.69055007000000     -0.40756158000000     -3.10104357000000
  H   4.10825198000000     -1.39561281000000     -3.31950494000000
  H   4.35932601000000     -0.07546347000000     -2.30565044000000
  H   3.82885809000000      0.24760623000000     -3.95977384000000
