38
Coordinates from ORCA-job 4_1_orca
  Pd  0.38621592000000      0.16902446000000     -0.22639183000000
  O   1.95121891000000      1.30038706000000      0.67460559000000
  C   1.63628902000000      2.64145047000000      0.32851959000000
  O   0.69472979000000      2.91008848000000     -0.13191700000000
  C   2.78467354000000      3.65418955000000      0.61962133000000
  H   2.32102448000000      4.56318461000000      1.04529706000000
  H   3.18301521000000      3.95455854000000     -0.35060070000000
  H   3.56722404000000      3.31747731000000      1.26083247000000
  N   -1.41175010000000     -0.81159289000000     -1.00021094000000
  C   -1.21094600000000     -1.99403396000000     -1.82334095000000
  H   -0.67627154000000     -1.76591117000000     -2.72478747000000
  H   -2.18320604000000     -2.35794518000000     -2.17239790000000
  H   -0.64868116000000     -2.72297801000000     -1.25636459000000
  C   -2.04531515000000      0.22288246000000     -1.81134292000000
  H   -2.20029001000000      1.14001865000000     -1.28206068000000
  H   -3.01185368000000     -0.13706992000000     -2.15527869000000
  H   -1.42103803000000      0.41626255000000     -2.67864773000000
  C   -1.62886845000000     -1.10414641000000      1.44961307000000
  C   -1.59011991000000     -2.23984725000000      2.35291963000000
  C   -1.34461764000000     -2.04769152000000      3.69558686000000
  C   -1.04650967000000     -0.81608576000000      4.17512989000000
  C   -1.14183991000000      0.31425397000000      3.32619120000000
  C   -1.41709552000000      0.11692587000000      2.00474362000000
  H   -0.81715604000000     -0.66959988000000      5.22952829000000
  H   -0.95386682000000      1.23714546000000      3.76795929000000
  H   -1.99083359000000     -3.16513151000000      2.06196160000000
  H   -1.45962537000000     -2.87083798000000      4.39555936000000
  H   -1.60728927000000      3.79806929000000      1.12999685000000
  C   -2.32259223000000     -1.20612405000000      0.16764441000000
  H   -3.21670952000000     -0.55179369000000      0.20160153000000
  H   -2.78404488000000     -2.17799164000000      0.03209906000000
  O   1.87485871000000      0.07455444000000     -1.54655432000000
  C   2.21351225000000     -0.52015673000000     -2.69170224000000
  O   1.57650309000000     -1.27690505000000     -3.31168488000000
  C   3.71652914000000     -0.31948965000000     -3.10404553000000
  H   4.07911126000000     -1.35031616000000     -3.35205138000000
  H   4.34553090000000     -0.01537720000000     -2.32722212000000
  H   3.80106431000000      0.28795967000000     -3.97409656000000
