38
Coordinates from ORCA-job 4_2_orca
  Pd  0.39195556000000      0.14075694000000     -0.26491765000000
  O   1.93349984000000      1.36240394000000      0.66713242000000
  C   1.73550599000000      2.59248094000000      0.36141210000000
  O   0.66002547000000      2.90884355000000     -0.14803460000000
  C   2.76509531000000      3.66883728000000      0.61481424000000
  H   2.31851898000000      4.57040926000000      1.04389084000000
  H   3.17635422000000      3.96166375000000     -0.35296768000000
  H   3.55845121000000      3.32132614000000      1.25982105000000
  N   -1.39575680000000     -0.79884665000000     -0.95961546000000
  C   -1.22232101000000     -1.97334882000000     -1.82981371000000
  H   -0.70282929000000     -1.75339365000000     -2.75205073000000
  H   -2.19011463000000     -2.33848121000000     -2.20210437000000
  H   -0.64131264000000     -2.70416827000000     -1.28133711000000
  C   -2.04016769000000      0.21892441000000     -1.79447031000000
  H   -2.20806031000000      1.14575756000000     -1.26654413000000
  H   -3.02282451000000     -0.11567171000000     -2.14502640000000
  H   -1.43630183000000      0.44427829000000     -2.66868132000000
  C   -1.58862281000000     -1.12536957000000      1.44416704000000
  C   -1.53461384000000     -2.21613929000000      2.33318361000000
  C   -1.34525392000000     -2.05078564000000      3.69111133000000
  C   -1.02125932000000     -0.80713719000000      4.17471257000000
  C   -1.19435369000000      0.29137813000000      3.33279174000000
  C   -1.46835073000000      0.13488605000000      1.99254278000000
  H   -0.82418396000000     -0.66847657000000      5.23177079000000
  H   -0.99838840000000      1.24343608000000      3.78244380000000
  H   -1.95041289000000     -3.17474765000000      2.06749517000000
  H   -1.41906877000000     -2.87286027000000      4.39414499000000
  H   -1.65263820000000      3.79163788000000      1.14923318000000
  C   -2.32181282000000     -1.19913443000000      0.15074469000000
  H   -3.23562305000000     -0.58337511000000      0.20552885000000
  H   -2.77882789000000     -2.18921249000000      0.04658129000000
  O   1.86512774000000      0.00004411000000     -1.55872812000000
  C   2.22848239000000     -0.41540466000000     -2.71590128000000
  O   1.58628841000000     -1.24769505000000     -3.29710244000000
  C   3.69804655000000     -0.38214767000000     -3.10190981000000
  H   4.09984317000000     -1.38254207000000     -3.32889650000000
  H   4.35534531000000     -0.05812506000000     -2.31187513000000
  H   3.82083796000000      0.25925056000000     -3.96390679000000
