38
Coordinates from ORCA-job 4_4_orca
  Pd  0.39224645000000      0.17175317000000     -0.22327471000000
  O   1.93791673000000      1.33055654000000      0.66452297000000
  C   1.67974538000000      2.59940725000000      0.35253655000000
  O   0.66317636000000      2.92125350000000     -0.14639228000000
  C   2.77553752000000      3.65533353000000      0.61747090000000
  H   2.32331400000000      4.56152631000000      1.04478150000000
  H   3.18404310000000      3.95385834000000     -0.35045256000000
  H   3.56882527000000      3.31464970000000      1.26230024000000
  N   -1.41113542000000     -0.81126026000000     -0.99122110000000
  C   -1.21251117000000     -1.99470553000000     -1.82267270000000
  H   -0.67367808000000     -1.76718121000000     -2.72489150000000
  H   -2.18303775000000     -2.36036625000000     -2.17156803000000
  H   -0.64886456000000     -2.72460778000000     -1.25448058000000
  C   -2.04424981000000      0.21823699000000     -1.81405977000000
  H   -2.20015803000000      1.14166640000000     -1.28190971000000
  H   -3.01317570000000     -0.13748745000000     -2.15725446000000
  H   -1.42052962000000      0.41549943000000     -2.67976013000000
  C   -1.62845336000000     -1.11581864000000      1.45702100000000
  C   -1.59056189000000     -2.22588811000000      2.34878687000000
  C   -1.34881203000000     -2.05398202000000      3.69466395000000
  C   -1.04489700000000     -0.80697566000000      4.17552208000000
  C   -1.13996115000000      0.30481207000000      3.32767930000000
  C   -1.41341450000000      0.11980694000000      2.00525089000000
  H   -0.81719955000000     -0.67000631000000      5.22845117000000
  H   -0.94866603000000      1.24325484000000      3.76930980000000
  H   -1.99582279000000     -3.17015850000000      2.06032080000000
  H   -1.46144151000000     -2.87052723000000      4.39579919000000
  H   -1.60479996000000      3.79761031000000      1.12913758000000
  C   -2.32483562000000     -1.20043388000000      0.15886072000000
  H   -3.21487346000000     -0.55082469000000      0.20118960000000
  H   -2.78493936000000     -2.17912849000000      0.03187126000000
  O   1.87542352000000      0.07103495000000     -1.55988274000000
  C   2.22551759000000     -0.50239963000000     -2.67658788000000
  O   1.56813690000000     -1.29044213000000     -3.31435276000000
  C   3.70618464000000     -0.33090788000000     -3.10485016000000
  H   4.07904182000000     -1.34368187000000     -3.35298257000000
  H   4.34862830000000     -0.00945289000000     -2.32309875000000
  H   3.79942530000000      0.29312102000000     -3.97714430000000
