27
Coordinates from ORCA-job 4_0_orca
  Pd  -2.24831990000000     -1.65690838000000      0.80013176000000
  Cl  -3.65374361000000     -3.24370299000000     -0.10165465000000
  Cl  -0.95151547000000     -4.37090831000000      1.60723531000000
  Cl  -3.85419819000000     -0.07203341000000      0.45341504000000
  N   -0.91836881000000     -0.16190327000000      1.43456588000000
  C   -1.23148209000000      0.37730473000000      2.59831695000000
  C   -0.74741821000000      1.61600268000000      3.02485685000000
  C   0.08431925000000      2.30333180000000      2.17870758000000
  C   -0.07138582000000      0.46516866000000      0.59324594000000
  C   0.43748132000000      1.73340528000000      0.94789230000000
  H   0.46978945000000      3.27353211000000      2.47007632000000
  H   -1.92718589000000     -0.17127766000000      3.21960584000000
  H   -1.03782554000000      2.01035427000000      3.98779707000000
  C   0.35315419000000     -0.19985220000000     -0.61063582000000
  C   1.29760497000000      2.42157613000000      0.03805203000000
  C   1.63279510000000      1.85295283000000     -1.14052364000000
  C   1.19219461000000      0.53434908000000     -1.47985795000000
  H   1.66561208000000      3.40625346000000      0.29830354000000
  H   2.27339474000000      2.39623839000000     -1.82590149000000
  C   -0.00001252000000     -1.52879491000000     -0.92489492000000
  C   1.63751716000000     -0.05140584000000     -2.67432829000000
  C   0.43786202000000     -2.04959853000000     -2.12800872000000
  C   1.28198377000000     -1.33896285000000     -2.98460478000000
  H   2.27198363000000      0.50320349000000     -3.35543387000000
  H   1.64292217000000     -1.77749567000000     -3.90966189000000
  H   -0.21284419000000     -3.21204615000000     -0.09513894000000
  H   0.17567951000000     -3.05878274000000     -2.42156375000000
