27
Coordinates from ORCA-job 4_3_orca
  Pd  -2.21073764000000     -1.72679720000000      0.73377822000000
  Cl  -3.61687047000000     -3.22956960000000     -0.11126239000000
  Cl  -0.85631351000000     -4.31391725000000      1.46965100000000
  Cl  -3.87174137000000     -0.11437248000000      0.54590548000000
  N   -0.95232020000000     -0.15679615000000      1.43910780000000
  C   -1.25464321000000      0.39494405000000      2.59782919000000
  C   -0.74769572000000      1.62820469000000      3.02269120000000
  C   0.08450074000000      2.31429712000000      2.17612274000000
  C   -0.06497305000000      0.45454124000000      0.61680406000000
  C   0.44069847000000      1.74325379000000      0.94847036000000
  H   0.47468927000000      3.28207458000000      2.45769387000000
  H   -1.93664741000000     -0.15317950000000      3.21737421000000
  H   -1.04711902000000      2.02842565000000      3.97642415000000
  C   0.34564452000000     -0.24065506000000     -0.59472118000000
  C   1.30664851000000      2.42706260000000      0.04251181000000
  C   1.64346850000000      1.84964890000000     -1.13587090000000
  C   1.18586468000000      0.53027728000000     -1.47591421000000
  H   1.68126586000000      3.40575456000000      0.30463990000000
  H   2.29168310000000      2.38072030000000     -1.82163974000000
  C   0.00958037000000     -1.66261191000000     -0.86932380000000
  C   1.65000977000000     -0.05256371000000     -2.67639815000000
  C   0.42253718000000     -2.06042225000000     -2.13129395000000
  C   1.25189097000000     -1.31748919000000     -2.99970890000000
  H   2.29211633000000      0.50455976000000     -3.34124048000000
  H   1.62738667000000     -1.78361610000000     -3.90198513000000
  H   -0.28740894000000     -3.08261484000000     -0.05615288000000
  H   0.13687127000000     -3.04886049000000     -2.42962629000000
