27
Coordinates from ORCA-job 4_4_orca
  Pd  -2.18136850000000     -1.72714135000000      0.70520179000000
  Cl  -3.60100880000000     -3.24007956000000     -0.12931496000000
  Cl  -0.79349629000000     -4.27958407000000      1.37371601000000
  Cl  -3.88214614000000     -0.15281399000000      0.61243988000000
  N   -0.95319867000000     -0.15161774000000      1.43438375000000
  C   -1.26586276000000      0.40592275000000      2.59190063000000
  C   -0.75042838000000      1.63717506000000      3.01754213000000
  C   0.08351892000000      2.32087828000000      2.17504928000000
  C   -0.06695863000000      0.44423300000000      0.61116031000000
  C   0.43970477000000      1.73578783000000      0.94899712000000
  H   0.47784474000000      3.29067982000000      2.45180522000000
  H   -1.95212660000000     -0.14275277000000      3.22129940000000
  H   -1.05343301000000      2.04226709000000      3.97213078000000
  C   0.34681391000000     -0.28276307000000     -0.58155272000000
  C   1.31301388000000      2.42334125000000      0.04006889000000
  C   1.64318498000000      1.84213165000000     -1.12589886000000
  C   1.17366808000000      0.50622769000000     -1.46084292000000
  H   1.69345117000000      3.40862237000000      0.30964660000000
  H   2.30576813000000      2.37149790000000     -1.81969887000000
  C   0.02413025000000     -1.66109886000000     -0.84510413000000
  C   1.64563645000000     -0.05028934000000     -2.66704737000000
  C   0.40728645000000     -2.06685871000000     -2.11723726000000
  C   1.23086608000000     -1.31835063000000     -2.99598491000000
  H   2.30893516000000      0.50567547000000     -3.33552395000000
  H   1.61464321000000     -1.78590889000000     -3.90146766000000
  H   -0.32282237000000     -3.02106926000000     -0.03164195000000
  H   0.11214268000000     -3.05377762000000     -2.44584356000000
