27
Coordinates from ORCA-job 4_5_orca
  Pd  -2.16454591000000     -1.71168208000000      0.68895654000000
  Cl  -3.59215427000000     -3.25015393000000     -0.14320409000000
  Cl  -0.75228915000000     -4.25398702000000      1.30749111000000
  Cl  -3.88771866000000     -0.17768208000000      0.65419586000000
  N   -0.95236600000000     -0.15000026000000      1.43336958000000
  C   -1.27031561000000      0.41241909000000      2.58779009000000
  C   -0.75650809000000      1.63880496000000      3.01470818000000
  C   0.08334762000000      2.32030653000000      2.16982786000000
  C   -0.06753541000000      0.43836050000000      0.60747062000000
  C   0.44112267000000      1.73079343000000      0.94641200000000
  H   0.47967213000000      3.29604469000000      2.44813817000000
  H   -1.96256141000000     -0.13553261000000      3.22205472000000
  H   -1.05689042000000      2.04997688000000      3.96985718000000
  C   0.35474310000000     -0.28761187000000     -0.57096114000000
  C   1.31412045000000      2.42154206000000      0.04510390000000
  C   1.64191090000000      1.83008317000000     -1.12479223000000
  C   1.17355453000000      0.49437844000000     -1.45438599000000
  H   1.69924537000000      3.40710899000000      0.31172723000000
  H   2.31025087000000      2.36208952000000     -1.81599803000000
  C   0.02531232000000     -1.65176158000000     -0.83847519000000
  C   1.63802613000000     -0.05292237000000     -2.66016755000000
  C   0.40178618000000     -2.06922641000000     -2.11163211000000
  C   1.21909651000000     -1.32450699000000     -2.98727601000000
  H   2.31504732000000      0.50380547000000     -3.32799821000000
  H   1.60365657000000     -1.78591466000000     -3.90021683000000
  H   -0.33921884000000     -2.99813307000000     -0.00651587000000
  H   0.09836219000000     -3.05630441000000     -2.45414996000000
