39
Coordinates from ORCA-job 1_4_orca
  Ir  0.44861166000000     -0.64341530000000      1.08419917000000
  C   0.02970930000000     -2.57428343000000      2.01342208000000
  C   1.26242587000000     -2.05834428000000      2.53743767000000
  C   1.50086396000000     -2.36532399000000      0.25997986000000
  C   0.19626751000000     -2.79851929000000      0.63177617000000
  C   2.15350362000000     -1.92933225000000      1.44980210000000
  N   -0.87872382000000      0.07261209000000     -0.38110963000000
  C   -2.32020369000000      0.21488769000000      0.00001943000000
  C   -2.78068472000000      1.66541912000000     -0.04292805000000
  H   -3.80335264000000      1.72589162000000      0.32602681000000
  H   -2.77274483000000      2.06745731000000     -1.05838156000000
  H   -2.16568177000000      2.30523432000000      0.58941207000000
  C   -3.22067737000000     -0.68391939000000     -0.83970530000000
  H   -2.39006772000000     -0.12350050000000      1.03609425000000
  H   -4.22395794000000     -0.67961124000000     -0.41742012000000
  H   -3.31571888000000     -0.34412145000000     -1.87305355000000
  H   -2.87046636000000     -1.71841502000000     -0.84996767000000
  C   -0.56097305000000      0.29504817000000     -1.60404370000000
  C   0.73561462000000      0.20941661000000     -2.22079579000000
  H   -1.38941565000000      0.54689867000000     -2.28099190000000
  C   2.01211397000000      0.38609980000000     -1.76295512000000
  C   2.99217400000000      0.16299521000000     -2.73397116000000
  S   0.76207431000000     -0.11190864000000     -3.92869164000000
  C   2.45628742000000     -0.09538769000000     -3.96088441000000
  H   2.26500127000000      0.78710016000000     -0.77667871000000
  H   4.04765267000000      0.23437843000000     -2.54840638000000
  H   2.99743045000000     -0.27812801000000     -4.88056935000000
  H   -0.83607477000000     -2.85130765000000      2.59909162000000
  H   1.46939385000000     -1.85424208000000      3.57698713000000
  H   3.15756617000000     -1.53413899000000      1.49931213000000
  O   1.36510449000000      1.31334412000000      1.06612542000000
  O   -0.32981377000000      0.90379131000000      2.28082549000000
  C   0.51707881000000      1.75520278000000      1.89703698000000
  C   0.50879024000000      3.15804856000000      2.40772031000000
  H   0.73008630000000      3.86826356000000      1.61360837000000
  H   1.28398605000000      3.28809685000000      3.16828973000000
  H   -0.45107216000000      3.41070306000000      2.86645350000000
  H   1.94894153000000     -2.47150596000000     -0.71791923000000
  H   -0.53349676000000     -3.25346132000000     -0.02474876000000
