38
Coordinates from ORCA-job 5_0_orca
  Pd  0.41927657000000      0.33654484000000     -0.37716966000000
  O   2.01270076000000      1.41996367000000      0.60350351000000
  C   1.71310015000000      2.58217853000000      0.31603584000000
  O   0.54187235000000      2.83655405000000     -0.13748978000000
  C   2.64489341000000      3.71522314000000      0.58714674000000
  H   2.13693976000000      4.57190657000000      1.02680999000000
  H   3.07299797000000      4.03946083000000     -0.36343055000000
  H   3.46159520000000      3.41484028000000      1.23783068000000
  N   -1.32699458000000     -0.62305546000000     -1.06518173000000
  C   -1.26299611000000     -1.55323589000000     -2.21229410000000
  H   -0.86184293000000     -1.09682183000000     -3.11261557000000
  H   -2.24966339000000     -1.90140494000000     -2.55129716000000
  H   -0.64493020000000     -2.41766214000000     -1.97347009000000
  C   -2.16467304000000      0.46889979000000     -1.58626770000000
  H   -2.29712714000000      1.24828516000000     -0.84669384000000
  H   -3.17315050000000      0.15752168000000     -1.88619831000000
  H   -1.70953445000000      0.94601404000000     -2.44877879000000
  C   -1.49857837000000     -1.04540473000000      1.37635418000000
  C   -0.82792496000000     -1.99577980000000      2.14225152000000
  C   -0.72956912000000     -1.89510244000000      3.52456816000000
  C   -1.10778760000000     -0.71981035000000      4.14671411000000
  C   -1.78367203000000      0.24366410000000      3.40079017000000
  C   -1.88801535000000      0.13808133000000      2.01956440000000
  H   -0.98898103000000     -0.60817192000000      5.21492840000000
  H   -2.33362067000000      0.97938745000000      3.97597052000000
  H   -0.57297015000000     -2.96070408000000      1.72426891000000
  H   -0.33564586000000     -2.71268454000000      4.11464601000000
  H   -2.37766688000000      3.15899530000000      1.68678191000000
  C   -2.05052403000000     -1.34390237000000      0.00665295000000
  H   -3.12573620000000     -1.12113837000000      0.06379096000000
  H   -2.04661729000000     -2.43437971000000     -0.09926900000000
  O   1.87892023000000     -0.67314475000000     -1.18339501000000
  C   2.27900176000000     -0.51972785000000     -2.40081939000000
  O   1.56081620000000     -0.03391172000000     -3.25297426000000
  C   3.62914265000000     -1.03919134000000     -2.84569996000000
  H   3.62239244000000     -2.12851531000000     -2.90412484000000
  H   4.40255072000000     -0.78370114000000     -2.11961588000000
  H   3.98201709000000     -0.65007008000000     -3.80180793000000
