38
Coordinates from ORCA-job 5_11_orca
  Pd  0.57650857000000      0.32911032000000     -0.29422338000000
  O   1.94565376000000      1.39431471000000      0.48004122000000
  C   1.59436106000000      2.54969085000000      0.33000356000000
  O   0.46776910000000      2.86869503000000     -0.18059372000000
  C   2.63439517000000      3.63247135000000      0.60369207000000
  H   2.18248293000000      4.53926943000000      1.01388765000000
  H   3.09929056000000      3.97839165000000     -0.33999042000000
  H   3.47734633000000      3.33748013000000      1.25122790000000
  N   -1.38141642000000     -0.65822513000000     -1.11843081000000
  C   -1.21836113000000     -1.69212220000000     -2.19031993000000
  H   -0.64929521000000     -1.19884869000000     -3.01026650000000
  H   -2.24028440000000     -2.09954251000000     -2.39992628000000
  H   -0.60435095000000     -2.52971408000000     -1.79695169000000
  C   -2.17331298000000      0.47912468000000     -1.65058497000000
  H   -2.28455336000000      1.26567688000000     -0.86322157000000
  H   -3.15856064000000      0.07042965000000     -1.95988714000000
  H   -1.61476788000000      0.83678375000000     -2.52684624000000
  C   -1.57888358000000     -0.97058308000000      1.44683015000000
  C   -1.14033391000000     -2.07110039000000      2.18750787000000
  C   -0.77556460000000     -1.89738736000000      3.52885538000000
  C   -1.17943685000000     -0.74644526000000      4.20033356000000
  C   -1.65909113000000      0.38695581000000      3.54051535000000
  C   -1.71712822000000      0.23399461000000      2.16917860000000
  H   -1.02273513000000     -0.60776814000000      5.24271708000000
  H   -1.92931999000000      1.39942439000000      3.93841052000000
  H   -0.92434178000000     -3.01038575000000      1.66689297000000
  H   -0.46258416000000     -2.73579685000000      4.11637357000000
  H   -2.15625880000000      2.64892560000000      1.52414650000000
  C   -2.07849323000000     -1.24014134000000      0.00780935000000
  H   -3.11509466000000     -0.89920706000000     -0.02524913000000
  H   -2.05847174000000     -2.32938387000000     -0.13373005000000
  O   2.03453455000000     -0.77190352000000     -1.26123434000000
  C   2.19256453000000     -0.51712100000000     -2.52050329000000
  O   1.39458912000000     -0.08227199000000     -3.30877922000000
  C   3.63735286000000     -0.88338980000000     -2.82992300000000
  H   3.68918343000000     -1.96513484000000     -3.00555438000000
  H   4.41150115000000     -0.63551064000000     -2.06098192000000
  H   3.81682647000000     -0.40853219000000     -3.77202497000000
