38
Coordinates from ORCA-job 5_12_orca
  Pd  0.55924392000000      0.36190416000000     -0.29040420000000
  O   1.95531257000000      1.35930939000000      0.50139569000000
  C   1.58848030000000      2.57430523000000      0.33272656000000
  O   0.49905091000000      2.86024773000000     -0.17252446000000
  C   2.64525274000000      3.66041531000000      0.59739352000000
  H   2.16809198000000      4.54813820000000      1.01618773000000
  H   3.09541762000000      4.00093784000000     -0.34921866000000
  H   3.47693195000000      3.36110433000000      1.24870339000000
  N   -1.38958912000000     -0.65940501000000     -1.12968035000000
  C   -1.22578758000000     -1.66440398000000     -2.21145904000000
  H   -0.70516859000000     -1.16227612000000     -3.03775871000000
  H   -2.24602556000000     -2.03946973000000     -2.43250487000000
  H   -0.61518274000000     -2.49912086000000     -1.84618437000000
  C   -2.17839772000000      0.49140563000000     -1.63031352000000
  H   -2.28879360000000      1.26617044000000     -0.85084121000000
  H   -3.15947471000000      0.08720074000000     -1.93674846000000
  H   -1.63702797000000      0.86494333000000     -2.50725592000000
  C   -1.55771819000000     -0.97575708000000      1.42402281000000
  C   -1.06378925000000     -2.06297190000000      2.18251160000000
  C   -0.74158582000000     -1.88719355000000      3.52381263000000
  C   -1.16864886000000     -0.74789747000000      4.17948214000000
  C   -1.69865640000000      0.35177393000000      3.49948651000000
  C   -1.75781934000000      0.19248154000000      2.15183066000000
  H   -1.01412837000000     -0.60444227000000      5.22794686000000
  H   -2.04641565000000      1.27910389000000      3.94342149000000
  H   -0.81850420000000     -2.99833410000000      1.68017562000000
  H   -0.42943238000000     -2.73002547000000      4.11593018000000
  H   -2.22196717000000      2.80647216000000      1.57020116000000
  C   -2.06860240000000     -1.27626656000000      0.02342469000000
  H   -3.11389206000000     -0.95960322000000     -0.00344443000000
  H   -2.05261779000000     -2.36153901000000     -0.13007501000000
  O   2.01274592000000     -0.76183915000000     -1.23150268000000
  C   2.19839438000000     -0.51223876000000     -2.49840837000000
  O   1.43465468000000     -0.05788285000000     -3.31101110000000
  C   3.64564386000000     -0.93033581000000     -2.81987623000000
  H   3.66862782000000     -2.01474689000000     -2.97721730000000
  H   4.41644121000000     -0.67962714000000     -2.07405001000000
  H   3.85686237000000     -0.47857767000000     -3.77874788000000
