38
Coordinates from ORCA-job 5_14_orca
  Pd  0.51641922000000      0.28712667000000     -0.34680243000000
  O   1.97087623000000      1.38795431000000      0.50321988000000
  C   1.63285357000000      2.59559452000000      0.30128813000000
  O   0.47943268000000      2.85060684000000     -0.15464133000000
  C   2.63500852000000      3.64569802000000      0.60448285000000
  H   2.18149242000000      4.53596632000000      1.01860548000000
  H   3.09086058000000      3.96628512000000     -0.33629480000000
  H   3.46055448000000      3.33225268000000      1.24642954000000
  N   -1.32590784000000     -0.63697186000000     -1.08616521000000
  C   -1.22055147000000     -1.67071606000000     -2.15553264000000
  H   -0.68347451000000     -1.22809183000000     -3.00665971000000
  H   -2.21246956000000     -2.08663679000000     -2.42463667000000
  H   -0.61272068000000     -2.51587497000000     -1.80088260000000
  C   -2.15094678000000      0.45012027000000     -1.65421947000000
  H   -2.28224714000000      1.24692883000000     -0.89490174000000
  H   -3.14992386000000      0.09115978000000     -1.95991848000000
  H   -1.63111046000000      0.84565327000000     -2.51851021000000
  C   -1.57911212000000     -0.97051641000000      1.43950672000000
  C   -1.09856500000000     -2.03945162000000      2.18066095000000
  C   -0.84051543000000     -1.90913935000000      3.53861512000000
  C   -1.15804486000000     -0.71287385000000      4.20055704000000
  C   -1.64337497000000      0.38690339000000      3.50084007000000
  C   -1.74794941000000      0.26588321000000      2.11479848000000
  H   -1.01255491000000     -0.62022458000000      5.26314332000000
  H   -1.91909922000000      1.34501440000000      3.94720274000000
  H   -0.93592959000000     -3.00449067000000      1.68559610000000
  H   -0.46123282000000     -2.74311567000000      4.12177763000000
  H   -2.14762770000000      2.61377001000000      1.53177615000000
  C   -2.08620356000000     -1.24043021000000      0.02145243000000
  H   -3.12481357000000     -0.91334906000000     -0.01330356000000
  H   -2.07807631000000     -2.32594161000000     -0.11539931000000
  O   1.96871377000000     -0.72752167000000     -1.23498705000000
  C   2.23138898000000     -0.52773583000000     -2.47408738000000
  O   1.40958387000000     -0.10377743000000     -3.29543517000000
  C   3.62828764000000     -0.88561778000000     -2.86364458000000
  H   3.69452584000000     -1.95875505000000     -3.00858293000000
  H   4.38478960000000     -0.62866041000000     -2.08465052000000
  H   3.84977722000000     -0.40035613000000     -3.79157154000000
