38
Coordinates from ORCA-job 5_15_orca
  Pd  0.50463338000000      0.27513838000000     -0.35949895000000
  O   1.97459509000000      1.38817246000000      0.49794040000000
  C   1.62284706000000      2.59504738000000      0.28908915000000
  O   0.48654739000000      2.84727173000000     -0.14483417000000
  C   2.63868341000000      3.64672605000000      0.60431607000000
  H   2.18412410000000      4.53320348000000      1.02078153000000
  H   3.09017111000000      3.95487564000000     -0.33267067000000
  H   3.45366015000000      3.32030849000000      1.24615186000000
  N   -1.31166430000000     -0.63585477000000     -1.08075328000000
  C   -1.20969859000000     -1.67671786000000     -2.13758709000000
  H   -0.67847077000000     -1.25264562000000     -2.99355452000000
  H   -2.19882122000000     -2.09880795000000     -2.41965403000000
  H   -0.61271221000000     -2.51962249000000     -1.78388923000000
  C   -2.14081583000000      0.44493157000000     -1.65750274000000
  H   -2.27928582000000      1.23780954000000     -0.91419674000000
  H   -3.14287797000000      0.09039721000000     -1.96724252000000
  H   -1.62769097000000      0.83976462000000     -2.52474520000000
  C   -1.59251202000000     -0.94981131000000      1.43726164000000
  C   -1.11140140000000     -2.03807102000000      2.18496754000000
  C   -0.87413191000000     -1.91001204000000      3.54944439000000
  C   -1.15433364000000     -0.70782081000000      4.20338360000000
  C   -1.62289004000000      0.40515637000000      3.48883697000000
  C   -1.74460513000000      0.29224067000000      2.10940377000000
  H   -1.01171224000000     -0.62555732000000      5.27570124000000
  H   -1.87135531000000      1.36334750000000      3.94890883000000
  H   -0.97823541000000     -3.00321087000000      1.68926172000000
  H   -0.47525216000000     -2.74652324000000      4.12202124000000
  H   -2.11850672000000      2.52725108000000      1.51992869000000
  C   -2.08768264000000     -1.23047450000000      0.03262938000000
  H   -3.12902605000000     -0.89634048000000     -0.01812275000000
  H   -2.08837776000000     -2.31246721000000     -0.11013827000000
  O   1.95912150000000     -0.72252039000000     -1.22736051000000
  C   2.21697088000000     -0.52177418000000     -2.48264069000000
  O   1.41379706000000     -0.12568220000000     -3.28190539000000
  C   3.63152172000000     -0.87023796000000     -2.86819265000000
  H   3.70445557000000     -1.94117662000000     -3.02172780000000
  H   4.36917007000000     -0.61102187000000     -2.09405667000000
  H   3.84826864000000     -0.37017554000000     -3.80044171000000
