38
Coordinates from ORCA-job 5_1_orca
  Pd  0.45575154000000      0.37698210000000     -0.33750613000000
  O   2.01979251000000      1.32145761000000      0.58947914000000
  C   1.57756005000000      2.65876908000000      0.29481883000000
  O   0.60294192000000      2.82316347000000     -0.12560806000000
  C   2.66635329000000      3.71350883000000      0.58446310000000
  H   2.13738867000000      4.56678403000000      1.02446760000000
  H   3.07860488000000      4.03784184000000     -0.36117034000000
  H   3.46673164000000      3.41043225000000      1.23980342000000
  N   -1.36443387000000     -0.64599901000000     -1.12385537000000
  C   -1.24117217000000     -1.58748657000000     -2.22876765000000
  H   -0.84006694000000     -1.10349471000000     -3.09307815000000
  H   -2.24899260000000     -1.91429158000000     -2.52114087000000
  H   -0.64543031000000     -2.42441017000000     -1.95414486000000
  C   -2.17545252000000      0.49999740000000     -1.58525890000000
  H   -2.29611017000000      1.25096689000000     -0.84764478000000
  H   -3.16374260000000      0.13718034000000     -1.89085119000000
  H   -1.69463815000000      0.92826252000000     -2.45873510000000
  C   -1.52455797000000     -0.99390469000000      1.36674339000000
  C   -0.86728162000000     -2.03181316000000      2.16917033000000
  C   -0.71345674000000     -1.87835914000000      3.51999261000000
  C   -1.12345632000000     -0.74157412000000      4.13601916000000
  C   -1.78389295000000      0.27737971000000      3.39219526000000
  C   -1.85475184000000      0.11994554000000      2.07835058000000
  H   -0.99082769000000     -0.60398952000000      5.21737120000000
  H   -2.28647665000000      1.00975413000000      3.96106150000000
  H   -0.60535189000000     -2.96779367000000      1.71829305000000
  H   -0.35595921000000     -2.71841984000000      4.11613776000000
  H   -2.35669185000000      3.12582645000000      1.66906353000000
  C   -2.04870886000000     -1.35127597000000      0.05395262000000
  H   -3.11999488000000     -1.09403982000000      0.05073980000000
  H   -2.04969152000000     -2.42293811000000     -0.11151284000000
  O   1.92155577000000     -0.70713720000000     -1.16634772000000
  C   2.22996555000000     -0.49843721000000     -2.45001626000000
  O   1.54708645000000     -0.03564033000000     -3.27158976000000
  C   3.65882053000000     -1.02980770000000     -2.81404915000000
  H   3.62784934000000     -2.11159112000000     -2.91729513000000
  H   4.40378228000000     -0.77180267000000     -2.11997741000000
  H   3.95914482000000     -0.62189824000000     -3.80316690000000
