38
Coordinates from ORCA-job 5_21_orca
  Pd  0.47338308000000      0.32742520000000     -0.35081656000000
  O   1.94753155000000      1.34002664000000      0.41706762000000
  C   1.59700123000000      2.56499000000000      0.29793538000000
  O   0.46632830000000      2.84453817000000     -0.10978961000000
  C   2.62998632000000      3.60905747000000      0.59435212000000
  H   2.19032453000000      4.50765443000000      1.03571120000000
  H   3.11629987000000      3.91130306000000     -0.34480629000000
  H   3.40607511000000      3.22899199000000      1.25667869000000
  N   -1.30013683000000     -0.64040237000000     -1.07079763000000
  C   -1.12995082000000     -1.75304868000000     -2.04228546000000
  H   -0.61446364000000     -1.39365612000000     -2.93290739000000
  H   -2.11724756000000     -2.12845467000000     -2.35540412000000
  H   -0.55591119000000     -2.57515057000000     -1.59795048000000
  C   -2.07046998000000      0.43056379000000     -1.72545818000000
  H   -2.23708451000000      1.24115669000000     -1.01382447000000
  H   -3.05597017000000      0.04871238000000     -2.01918328000000
  H   -1.55386108000000      0.81257788000000     -2.60470753000000
  C   -1.65447843000000     -0.76860673000000      1.46024658000000
  C   -1.31544759000000     -1.89431055000000      2.21812897000000
  C   -1.01224168000000     -1.85032563000000      3.56069665000000
  C   -1.16288854000000     -0.62857975000000      4.18093644000000
  C   -1.45577356000000      0.51001303000000      3.43145700000000
  C   -1.68695135000000      0.50520650000000      2.05803918000000
  H   -1.01033523000000     -0.59891221000000      5.24907270000000
  H   -1.51260882000000      1.43478076000000      3.97864378000000
  H   -1.26865492000000     -2.86933281000000      1.74995300000000
  H   -0.67720072000000     -2.72943094000000      4.11181808000000
  H   -1.85797183000000      1.37170366000000      1.58260941000000
  C   -2.11398562000000     -1.13190930000000      0.06475909000000
  H   -3.13860852000000     -0.78484567000000     -0.05455976000000
  H   -2.17670230000000     -2.22201431000000     -0.01623718000000
  O   1.94093847000000     -0.76561548000000     -1.22132777000000
  C   2.16539056000000     -0.55372718000000     -2.47347431000000
  O   1.32366189000000     -0.20142606000000     -3.28802266000000
  C   3.59725855000000     -0.76006484000000     -2.91433039000000
  H   3.79411096000000     -1.80913891000000     -3.14785465000000
  H   4.30522324000000     -0.46092404000000     -2.14104137000000
  H   3.81070495000000     -0.18807420000000     -3.81484849000000
