38
Coordinates from ORCA-job 5_23_orca
  Pd  0.47759704000000      0.32193885000000     -0.36695293000000
  O   1.96512852000000      1.34883822000000      0.41860441000000
  C   1.59049430000000      2.56926970000000      0.28982268000000
  O   0.44850067000000      2.82535082000000     -0.08714786000000
  C   2.63262023000000      3.60739792000000      0.59212637000000
  H   2.18508503000000      4.48847977000000      1.02480702000000
  H   3.10800809000000      3.91324612000000     -0.33401173000000
  H   3.40364706000000      3.23301850000000      1.25610815000000
  N   -1.28394809000000     -0.62161775000000     -1.07817535000000
  C   -1.12675172000000     -1.74309676000000     -2.05006327000000
  H   -0.60422244000000     -1.37867026000000     -2.93863092000000
  H   -2.12948522000000     -2.11498231000000     -2.34984496000000
  H   -0.54629679000000     -2.55848625000000     -1.59174996000000
  C   -2.07121947000000      0.45047994000000     -1.73199473000000
  H   -2.22741973000000      1.26217662000000     -1.01468857000000
  H   -3.05546380000000      0.04673682000000     -2.02997983000000
  H   -1.53782251000000      0.82148014000000     -2.60707747000000
  C   -1.64657241000000     -0.83059333000000      1.42540499000000
  C   -1.30608718000000     -1.88090028000000      2.20823062000000
  C   -0.99258672000000     -1.81718881000000      3.53722480000000
  C   -1.14749432000000     -0.60593426000000      4.17485758000000
  C   -1.45584873000000      0.50385033000000      3.47481894000000
  C   -1.64871732000000      0.39796451000000      2.10663892000000
  H   -1.01069121000000     -0.54720152000000      5.22127428000000
  H   -1.52547041000000      1.44205348000000      3.99139334000000
  H   -1.25401610000000     -2.82228658000000      1.74451774000000
  H   -0.71890192000000     -2.70324186000000      4.09480967000000
  H   -1.87630205000000      1.27069045000000      1.59280541000000
  C   -2.11785964000000     -1.12093930000000      0.05765397000000
  H   -3.15561299000000     -0.79122299000000     -0.05683995000000
  H   -2.17091582000000     -2.21550627000000      0.01752356000000
  O   1.92190498000000     -0.77804529000000     -1.22974080000000
  C   2.15689697000000     -0.55882894000000     -2.48201631000000
  O   1.31164275000000     -0.17877529000000     -3.28213153000000
  C   3.60196599000000     -0.77225898000000     -2.90199925000000
  H   3.78911623000000     -1.81394184000000     -3.14500255000000
  H   4.31268407000000     -0.46661686000000     -2.13794836000000
  H   3.80191437000000     -0.20789375000000     -3.80452315000000
