38
Coordinates from ORCA-job 5_25_orca
  Pd  0.48863408000000      0.32212469000000     -0.37607101000000
  O   1.98027959000000      1.33911953000000      0.41172941000000
  C   1.58678769000000      2.55734351000000      0.28899950000000
  O   0.43366904000000      2.82164324000000     -0.07786674000000
  C   2.62883613000000      3.61118484000000      0.59142047000000
  H   2.17524601000000      4.49599786000000      1.02625912000000
  H   3.10672320000000      3.91573345000000     -0.33848294000000
  H   3.40549072000000      3.23429260000000      1.25612439000000
  N   -1.29555396000000     -0.62554092000000     -1.09205768000000
  C   -1.13132533000000     -1.72851393000000     -2.05867329000000
  H   -0.60950418000000     -1.37052246000000     -2.93505101000000
  H   -2.11689364000000     -2.10482776000000     -2.34688703000000
  H   -0.55592726000000     -2.53512327000000     -1.61294713000000
  C   -2.07054181000000      0.45412217000000     -1.72820695000000
  H   -2.23004287000000      1.26562396000000     -1.01707631000000
  H   -3.04917165000000      0.06197700000000     -2.02846699000000
  H   -1.54372728000000      0.83053047000000     -2.59762723000000
  C   -1.63619166000000     -0.83592371000000      1.44300972000000
  C   -1.26345369000000     -1.93095126000000      2.20969491000000
  C   -0.99258566000000     -1.81992544000000      3.55075545000000
  C   -1.12820486000000     -0.62900506000000      4.20274525000000
  C   -1.45955074000000      0.50689466000000      3.47494056000000
  C   -1.67423860000000      0.42812453000000      2.09039926000000
  H   -1.00543569000000     -0.53715171000000      5.25584599000000
  H   -1.55500007000000      1.45708343000000      3.98668637000000
  H   -1.22706793000000     -2.86919055000000      1.71782032000000
  H   -0.70792712000000     -2.69831159000000      4.08598513000000
  H   -1.90486329000000      1.32203614000000      1.57090357000000
  C   -2.11803171000000     -1.13457958000000      0.05247971000000
  H   -3.15503894000000     -0.79726673000000     -0.06193024000000
  H   -2.15615654000000     -2.21279252000000      0.00774803000000
  O   1.91596193000000     -0.78930855000000     -1.21779976000000
  C   2.14151726000000     -0.54168934000000     -2.47943146000000
  O   1.32507365000000     -0.16659937000000     -3.28624185000000
  C   3.60311376000000     -0.78426049000000     -2.89845953000000
  H   3.78036402000000     -1.83647972000000     -3.12874478000000
  H   4.31212867000000     -0.48180740000000     -2.12868559000000
  H   3.80517094000000     -0.22121631000000     -3.80803400000000
