38
Coordinates from ORCA-job 5_27_orca
  Pd  0.50569876000000      0.32996157000000     -0.38693638000000
  O   1.99796741000000      1.33170125000000      0.38315527000000
  C   1.58238264000000      2.54365790000000      0.29720174000000
  O   0.41572264000000      2.78993760000000     -0.04350459000000
  C   2.61295089000000      3.60798250000000      0.58853767000000
  H   2.15595098000000      4.49769831000000      1.02369614000000
  H   3.10239984000000      3.92045907000000     -0.34337046000000
  H   3.40064953000000      3.23693012000000      1.25298001000000
  N   -1.30792215000000     -0.61554410000000     -1.09511568000000
  C   -1.13427041000000     -1.69985877000000     -2.06951910000000
  H   -0.60450056000000     -1.34741447000000     -2.94248372000000
  H   -2.11260940000000     -2.08788019000000     -2.34308696000000
  H   -0.55576231000000     -2.50019123000000     -1.62917493000000
  C   -2.06647814000000      0.47022483000000     -1.72840736000000
  H   -2.22632401000000      1.28590385000000     -1.02417950000000
  H   -3.04008047000000      0.08601895000000     -2.03894551000000
  H   -1.53563650000000      0.85088911000000     -2.59458182000000
  C   -1.61572759000000     -0.83177331000000      1.46355445000000
  C   -1.21769431000000     -1.95140258000000      2.19637001000000
  C   -0.97464569000000     -1.82426269000000      3.55425754000000
  C   -1.11026936000000     -0.60370658000000      4.21339718000000
  C   -1.46056302000000      0.51420123000000      3.46344575000000
  C   -1.68965821000000      0.39425669000000      2.10983779000000
  H   -0.98816396000000     -0.50230287000000      5.30438148000000
  H   -1.59532640000000      1.47013164000000      3.97675581000000
  H   -1.17712004000000     -2.93367686000000      1.68232198000000
  H   -0.71207345000000     -2.70869318000000      4.09101466000000
  H   -1.95627931000000      1.30900492000000      1.54945687000000
  C   -2.11000142000000     -1.13181705000000      0.05662454000000
  H   -3.15437442000000     -0.80604244000000     -0.07026277000000
  H   -2.13717612000000     -2.22160654000000     -0.00262574000000
  O   1.89505317000000     -0.81938022000000     -1.22809043000000
  C   2.14270259000000     -0.53858733000000     -2.47205970000000
  O   1.32936538000000     -0.12655099000000     -3.28794218000000
  C   3.58929639000000     -0.80217947000000     -2.88603573000000
  H   3.76298893000000     -1.86521502000000     -3.10260122000000
  H   4.30955900000000     -0.50634332000000     -2.11522707000000
  H   3.80225241000000     -0.25005107000000     -3.80366115000000
