38
Coordinates from ORCA-job 5_28_orca
  Pd  0.50377471000000      0.33539299000000     -0.39154292000000
  O   2.00448947000000      1.32817423000000      0.35949115000000
  C   1.58538425000000      2.53700680000000      0.30373785000000
  O   0.40898764000000      2.76901444000000     -0.02266213000000
  C   2.60503795000000      3.60842942000000      0.58711288000000
  H   2.14747962000000      4.49619104000000      1.02270506000000
  H   3.09731433000000      3.91746629000000     -0.34391183000000
  H   3.39046290000000      3.23548705000000      1.24844512000000
  N   -1.30458590000000     -0.60318633000000     -1.08457516000000
  C   -1.13181000000000     -1.68946087000000     -2.06783570000000
  H   -0.60039430000000     -1.33803816000000     -2.94884189000000
  H   -2.11243188000000     -2.08534023000000     -2.34580787000000
  H   -0.54962548000000     -2.49176481000000     -1.62888916000000
  C   -2.06184680000000      0.47802448000000     -1.73015095000000
  H   -2.22472145000000      1.29461080000000     -1.02906208000000
  H   -3.03758335000000      0.09910122000000     -2.04712853000000
  H   -1.52943505000000      0.86102733000000     -2.59709064000000
  C   -1.61153696000000     -0.83292508000000      1.45673121000000
  C   -1.20983276000000     -1.95559480000000      2.19020183000000
  C   -0.97177933000000     -1.82002799000000      3.55727917000000
  C   -1.10782545000000     -0.59274553000000      4.21717837000000
  C   -1.45465933000000      0.53133175000000      3.46749192000000
  C   -1.70513699000000      0.41428758000000      2.10451246000000
  H   -0.98049971000000     -0.49667719000000      5.31025929000000
  H   -1.59774767000000      1.47032588000000      3.96345909000000
  H   -1.16105459000000     -2.94280158000000      1.68353248000000
  H   -0.70797963000000     -2.72843937000000      4.10704854000000
  H   -1.96900369000000      1.25552934000000      1.54607980000000
  C   -2.10337351000000     -1.12655730000000      0.06886251000000
  H   -3.14689961000000     -0.80676941000000     -0.07281327000000
  H   -2.12944259000000     -2.22158050000000     -0.01245461000000
  O   1.88404013000000     -0.83571557000000     -1.23601756000000
  C   2.14279165000000     -0.54198634000000     -2.47505952000000
  O   1.33619274000000     -0.11118801000000     -3.27835684000000
  C   3.58329035000000     -0.80765732000000     -2.88405512000000
  H   3.75375680000000     -1.87004860000000     -3.08992388000000
  H   4.29920402000000     -0.51466826000000     -2.11239545000000
  H   3.80127292000000     -0.25897410000000     -3.79970700000000
