38
Coordinates from ORCA-job 5_29_orca
  Pd  0.49502354000000      0.33939343000000     -0.39740838000000
  O   2.01635823000000      1.32423850000000      0.33277013000000
  C   1.58120651000000      2.53246762000000      0.30554513000000
  O   0.41102129000000      2.74305267000000      0.00424564000000
  C   2.59767351000000      3.61012644000000      0.58644875000000
  H   2.13904560000000      4.49462204000000      1.02229620000000
  H   3.08865975000000      3.91085888000000     -0.34318082000000
  H   3.37696675000000      3.23415010000000      1.24295722000000
  N   -1.29369559000000     -0.58880961000000     -1.07207329000000
  C   -1.12646117000000     -1.68091704000000     -2.06264772000000
  H   -0.59919834000000     -1.32863507000000     -2.95228106000000
  H   -2.11153670000000     -2.08509236000000     -2.35141973000000
  H   -0.54140819000000     -2.48747611000000     -1.62583439000000
  C   -2.05725499000000      0.48688314000000     -1.73107990000000
  H   -2.22412793000000      1.30292215000000     -1.03459282000000
  H   -3.03653359000000      0.11411806000000     -2.05684249000000
  H   -1.52220725000000      0.86919499000000     -2.59971141000000
  C   -1.60814241000000     -0.83848903000000      1.45938527000000
  C   -1.20954221000000     -1.94777210000000      2.19177369000000
  C   -0.96771130000000     -1.83380197000000      3.56744113000000
  C   -1.10990479000000     -0.58095354000000      4.21506030000000
  C   -1.44715766000000      0.52793037000000      3.46291080000000
  C   -1.71221378000000      0.41973701000000      2.10486879000000
  H   -0.97210369000000     -0.50209412000000      5.30179539000000
  H   -1.59497133000000      1.48139399000000      3.95087655000000
  H   -1.14658254000000     -2.93934050000000      1.69933613000000
  H   -0.70114881000000     -2.74151751000000      4.12562138000000
  H   -1.99041669000000      1.23147970000000      1.52737356000000
  C   -2.09730712000000     -1.12461962000000      0.07425386000000
  H   -3.13312284000000     -0.80515850000000     -0.07077014000000
  H   -2.12236095000000     -2.21588965000000     -0.02844719000000
  O   1.87181907000000     -0.85384943000000     -1.24463159000000
  C   2.14700432000000     -0.55110660000000     -2.47279269000000
  O   1.34207971000000     -0.09272186000000     -3.27113045000000
  C   3.57890074000000     -0.81270358000000     -2.88478090000000
  H   3.74273418000000     -1.87117885000000     -3.07657246000000
  H   4.28300869000000     -0.52191232000000     -2.11073978000000
  H   3.80103988000000     -0.26561639000000     -3.79626318000000
