38
Coordinates from ORCA-job 5_30_orca
  Pd  0.48674927000000      0.34060013000000     -0.40112650000000
  O   2.02635221000000      1.32365203000000      0.31355811000000
  C   1.59564500000000      2.52421081000000      0.30659408000000
  O   0.39862455000000      2.73039221000000      0.02014701000000
  C   2.59058232000000      3.61214125000000      0.58613055000000
  H   2.13476892000000      4.49485118000000      1.02318722000000
  H   3.07993828000000      3.90343498000000     -0.34307862000000
  H   3.36720148000000      3.23262737000000      1.24079491000000
  N   -1.28409150000000     -0.58186614000000     -1.06865370000000
  C   -1.12094306000000     -1.68047749000000     -2.05799651000000
  H   -0.60329917000000     -1.32347779000000     -2.94967105000000
  H   -2.10645409000000     -2.08500983000000     -2.35669775000000
  H   -0.53463953000000     -2.49039717000000     -1.62205604000000
  C   -2.05489240000000      0.49130660000000     -1.73160810000000
  H   -2.22625124000000      1.30777908000000     -1.03537287000000
  H   -3.03639629000000      0.12398117000000     -2.06134918000000
  H   -1.51867356000000      0.87150695000000     -2.59961316000000
  C   -1.61254274000000     -0.85411345000000      1.45781018000000
  C   -1.21470516000000     -1.94216378000000      2.21304840000000
  C   -0.97032956000000     -1.83949812000000      3.57418289000000
  C   -1.11293574000000     -0.59705814000000      4.20576676000000
  C   -1.44533495000000      0.52653153000000      3.47025362000000
  C   -1.71241558000000      0.42798080000000      2.09219283000000
  H   -0.96880593000000     -0.51903353000000      5.27860985000000
  H   -1.58364825000000      1.48399595000000      3.93712724000000
  H   -1.14183334000000     -2.91561052000000      1.72694379000000
  H   -0.68838218000000     -2.74660597000000      4.14186612000000
  H   -2.00729229000000      1.24438666000000      1.50643520000000
  C   -2.08809255000000     -1.12182245000000      0.07578353000000
  H   -3.12076897000000     -0.80113611000000     -0.06420045000000
  H   -2.11808069000000     -2.20982352000000     -0.04428128000000
  O   1.86456292000000     -0.86718513000000     -1.24389245000000
  C   2.13932049000000     -0.55326414000000     -2.47913154000000
  O   1.35520162000000     -0.08617767000000     -3.26043192000000
  C   3.57804990000000     -0.81503041000000     -2.88789547000000
  H   3.73616476000000     -1.87133167000000     -3.06952144000000
  H   4.26946292000000     -0.52333823000000     -2.10909164000000
  H   3.80307317000000     -0.26639534000000     -3.79633045000000
