38
Coordinates from ORCA-job 5_6_orca
  Pd  0.47576648000000      0.38247756000000     -0.32308365000000
  O   1.99846123000000      1.33396336000000      0.56987271000000
  C   1.61996812000000      2.62387857000000      0.32379294000000
  O   0.55912718000000      2.83734582000000     -0.14611526000000
  C   2.66193601000000      3.71130109000000      0.58476613000000
  H   2.14124671000000      4.56534281000000      1.02330277000000
  H   3.08260534000000      4.03683716000000     -0.36213518000000
  H   3.46902099000000      3.40542088000000      1.24144109000000
  N   -1.37301021000000     -0.65031967000000     -1.12815283000000
  C   -1.24298939000000     -1.59692332000000     -2.23044722000000
  H   -0.82783876000000     -1.10831549000000     -3.08809132000000
  H   -2.24756514000000     -1.92381422000000     -2.51020991000000
  H   -0.64154674000000     -2.43355260000000     -1.94255747000000
  C   -2.17733527000000      0.49738748000000     -1.59287409000000
  H   -2.29578757000000      1.25580151000000     -0.84510854000000
  H   -3.16120482000000      0.13061087000000     -1.89450262000000
  H   -1.68834555000000      0.92085731000000     -2.46422150000000
  C   -1.52056647000000     -0.99567142000000      1.37869240000000
  C   -0.89306971000000     -2.03020346000000      2.16659211000000
  C   -0.70946276000000     -1.88255307000000      3.52080348000000
  C   -1.13330377000000     -0.73604944000000      4.13847057000000
  C   -1.77170843000000      0.27978075000000      3.40633162000000
  C   -1.84559480000000      0.12278583000000      2.08545665000000
  H   -0.99185567000000     -0.60331676000000      5.21419810000000
  H   -2.26543689000000      1.03089084000000      3.95765400000000
  H   -0.62383395000000     -2.97385592000000      1.71581593000000
  H   -0.36706493000000     -2.71962284000000      4.11700724000000
  H   -2.34518449000000      3.10942253000000      1.65973840000000
  C   -2.05322748000000     -1.34432835000000      0.05138949000000
  H   -3.11798610000000     -1.08184403000000      0.04667815000000
  H   -2.05241376000000     -2.41950395000000     -0.11336674000000
  O   1.93383978000000     -0.71202556000000     -1.17314413000000
  C   2.23428867000000     -0.50643900000000     -2.44073230000000
  O   1.52610832000000     -0.03063807000000     -3.29235219000000
  C   3.65610288000000     -1.01931428000000     -2.81731725000000
  H   3.63183918000000     -2.10272416000000     -2.92403844000000
  H   4.41010782000000     -0.76172149000000     -2.11341620000000
  H   3.94916624000000     -0.60875412000000     -3.79970107000000
