38
Coordinates from ORCA-job 5_8_orca
  Pd  0.61061148000000      0.43819866000000     -0.23547733000000
  O   1.92777157000000      1.24900311000000      0.48011825000000
  C   1.55702984000000      2.62000660000000      0.36133270000000
  O   0.49930810000000      2.86281225000000     -0.18985442000000
  C   2.65962882000000      3.68058441000000      0.59711143000000
  H   2.15810551000000      4.55184470000000      1.01466089000000
  H   3.10157527000000      4.02415642000000     -0.36359813000000
  H   3.48309635000000      3.37746471000000      1.24872493000000
  N   -1.43064691000000     -0.67309891000000     -1.16830350000000
  C   -1.23569958000000     -1.66662332000000     -2.25090402000000
  H   -0.72703448000000     -1.12727456000000     -3.05440022000000
  H   -2.24924121000000     -1.99757190000000     -2.43257934000000
  H   -0.61496864000000     -2.49028378000000     -1.86981647000000
  C   -2.19374961000000      0.51089690000000     -1.62728139000000
  H   -2.29255396000000      1.28236862000000     -0.82356746000000
  H   -3.15233986000000      0.08497741000000     -1.91881249000000
  H   -1.64206423000000      0.87694425000000     -2.50014914000000
  C   -1.53458936000000     -0.96740038000000      1.41884675000000
  C   -1.04895379000000     -2.06782823000000      2.18555701000000
  C   -0.68605396000000     -1.86927298000000      3.51085673000000
  C   -1.18618946000000     -0.74706715000000      4.16358094000000
  C   -1.71474552000000      0.32648959000000      3.49636617000000
  C   -1.77442303000000      0.15209039000000      2.16505605000000
  H   -1.01133687000000     -0.59763856000000      5.20093670000000
  H   -2.12002552000000      1.21296965000000      3.93939607000000
  H   -0.74761915000000     -2.99801799000000      1.68126809000000
  H   -0.41499095000000     -2.73025066000000      4.11791470000000
  H   -2.26356754000000      2.91576469000000      1.59626140000000
  C   -2.06732081000000     -1.30187787000000      0.04679591000000
  H   -3.10316651000000     -0.99045480000000      0.00324587000000
  H   -2.04472635000000     -2.38682476000000     -0.13696103000000
  O   2.03635904000000     -0.78374268000000     -1.20209762000000
  C   2.18115664000000     -0.50738037000000     -2.49314213000000
  O   1.43743268000000     -0.02326915000000     -3.35229277000000
  C   3.65213432000000     -0.96169439000000     -2.80985667000000
  H   3.65528446000000     -2.04786500000000     -2.96181643000000
  H   4.44393624000000     -0.70308504000000     -2.06381616000000
  H   3.86730012000000     -0.52246481000000     -3.77426692000000
