38
Coordinates from ORCA-job 3_10_orca
  C   -2.36224192000000     -0.20361756000000      0.85682512000000
  C   -1.94330958000000      1.06590576000000      1.34530138000000
  C   -3.70983514000000     -0.52800137000000      0.83825567000000
  C   -4.66733669000000      0.36359302000000      1.36161973000000
  C   -4.26707511000000      1.63022048000000      1.79475645000000
  C   -2.90230511000000      1.92056455000000      1.87572001000000
  H   -2.20536963000000     -1.38674170000000     -1.23512048000000
  H   -3.99785356000000     -1.52351984000000      0.47117268000000
  H   -2.54425011000000      2.79081143000000      2.46148117000000
  H   -5.70941762000000      0.18907241000000      1.13100274000000
  H   -4.97349789000000      2.36875194000000      2.17347503000000
  C   -0.47156908000000      1.50741536000000      1.47686695000000
  C   0.64459326000000      0.45339262000000      1.79928057000000
  H   -0.45132790000000      2.30158086000000      2.26375584000000
  H   -0.22449086000000      1.97385061000000      0.51412593000000
  C   1.79482510000000      0.52511739000000      0.80361555000000
  H   0.23154979000000     -0.56647445000000      1.78777958000000
  H   1.04676825000000      0.68368944000000      2.80036772000000
  C   1.71465300000000     -0.15939850000000     -0.44173619000000
  C   2.72290995000000      0.14018221000000     -1.37740888000000
  C   3.70598555000000      1.10646298000000     -1.12522078000000
  C   2.80485909000000      1.48323834000000      1.05889250000000
  C   3.77550229000000      1.76127702000000      0.11034064000000
  H   2.73918837000000     -0.40762521000000     -2.32658563000000
  H   4.45996201000000      1.32208942000000     -1.87370150000000
  H   2.96015831000000      1.81991064000000      2.09050405000000
  H   4.56659324000000      2.47704364000000      0.32576990000000
  Pd  0.05968607000000     -1.49671461000000     -0.90207645000000
  Br  -1.53595854000000     -3.52692361000000     -0.84489145000000
  P   1.41344291000000     -2.95424967000000      0.11563377000000
  H   0.87534407000000     -3.53781344000000      1.28041465000000
  C   0.43491500000000     -1.29231963000000     -3.94161150000000
  O   1.52297122000000     -1.66428802000000     -4.22842218000000
  O   -0.46093036000000     -1.87921282000000     -3.05705198000000
  O   -0.07342536000000     -0.13885998000000     -4.41994322000000
  H   2.75395255000000     -2.74899122000000      0.57629089000000
  H   1.59927384000000     -4.14489230000000     -0.63268748000000
  H   0.66249483000000      0.27657913000000     -4.90809853000000
