38
Coordinates from ORCA-job 3_11_orca
  C   -2.34962825000000     -0.19330501000000      0.82277183000000
  C   -1.92039128000000      1.04988273000000      1.35711071000000
  C   -3.70253046000000     -0.54089157000000      0.86260258000000
  C   -4.65532647000000      0.37116164000000      1.32824687000000
  C   -4.25917267000000      1.62597770000000      1.80603246000000
  C   -2.89809618000000      1.93571118000000      1.86683488000000
  H   -2.11986789000000     -1.41531926000000     -1.17348371000000
  H   -3.99373512000000     -1.50646780000000      0.43366998000000
  H   -2.54624537000000      2.77230052000000      2.47316132000000
  H   -5.71361151000000      0.17367243000000      1.15248860000000
  H   -4.97054724000000      2.36998995000000      2.15757836000000
  C   -0.47236003000000      1.49385276000000      1.45963951000000
  C   0.63309579000000      0.46234900000000      1.79813719000000
  H   -0.46002976000000      2.29110336000000      2.25272574000000
  H   -0.19737268000000      1.98341235000000      0.52794814000000
  C   1.76810841000000      0.53269197000000      0.79528577000000
  H   0.22340730000000     -0.56242905000000      1.79448652000000
  H   1.03844834000000      0.68094852000000      2.79670123000000
  C   1.70041872000000     -0.16691434000000     -0.44175737000000
  C   2.70931679000000      0.13151182000000     -1.37039071000000
  C   3.69654599000000      1.09423451000000     -1.12631934000000
  C   2.80503600000000      1.45222500000000      1.05987541000000
  C   3.76086485000000      1.76574817000000      0.10390231000000
  H   2.72302449000000     -0.39777604000000     -2.33117881000000
  H   4.44876086000000      1.31867260000000     -1.87442951000000
  H   2.93793496000000      1.83996407000000      2.07691475000000
  H   4.57285458000000      2.45769171000000      0.32744056000000
  Pd  0.07600012000000     -1.49969666000000     -0.86656006000000
  Br  -1.56982179000000     -3.49351466000000     -0.84613093000000
  P   1.41414259000000     -2.94796038000000      0.11559041000000
  H   0.88331699000000     -3.53534809000000      1.27258808000000
  C   0.44802272000000     -1.24855260000000     -3.89809089000000
  O   1.51204316000000     -1.68034875000000     -4.23825834000000
  O   -0.46180055000000     -1.87084189000000     -3.07601812000000
  O   -0.08524066000000     -0.14084365000000     -4.42218260000000
  H   2.74805100000000     -2.74296464000000      0.56700499000000
  H   1.59355632000000     -4.13210228000000     -0.63486052000000
  H   0.67006214000000      0.27121654000000     -4.91118634000000
