38
Coordinates from ORCA-job 3_12_orca
  C   -2.32157924000000     -0.15970222000000      0.75294474000000
  C   -1.90327945000000      1.01212378000000      1.39454282000000
  C   -3.66813261000000     -0.54003178000000      0.87175292000000
  C   -4.63746615000000      0.40401404000000      1.25604329000000
  C   -4.23279357000000      1.61526153000000      1.81337874000000
  C   -2.87842861000000      1.90999765000000      1.88396045000000
  H   -2.04266934000000     -1.48226081000000     -1.14713869000000
  H   -3.98278829000000     -1.46771871000000      0.42130449000000
  H   -2.56268989000000      2.76877999000000      2.45122859000000
  H   -5.70354357000000      0.16161872000000      1.16780387000000
  H   -4.96865862000000      2.35593183000000      2.13510569000000
  C   -0.47521770000000      1.48704581000000      1.47388224000000
  C   0.62633207000000      0.46568300000000      1.79748988000000
  H   -0.45950757000000      2.25859622000000      2.23980566000000
  H   -0.18360720000000      2.01198446000000      0.56556956000000
  C   1.72646297000000      0.55643070000000      0.78424474000000
  H   0.22292273000000     -0.54256976000000      1.81806687000000
  H   1.03104858000000      0.66814397000000      2.79384429000000
  C   1.66545320000000     -0.13591898000000     -0.43608236000000
  C   2.68847987000000      0.12300215000000     -1.36623956000000
  C   3.68316568000000      1.08668296000000     -1.11674540000000
  C   2.81937389000000      1.39632629000000      1.06814461000000
  C   3.74335685000000      1.75015015000000      0.09015201000000
  H   2.70665953000000     -0.38204827000000     -2.31989877000000
  H   4.43025759000000      1.31219280000000     -1.87778627000000
  H   2.91175803000000      1.85583723000000      2.05455803000000
  H   4.55932237000000      2.44504181000000      0.31819598000000
  Pd  0.12735563000000     -1.45686647000000     -0.79678326000000
  Br  -1.62741693000000     -3.46885963000000     -0.85273847000000
  P   1.41864612000000     -2.95234783000000      0.11074379000000
  H   0.90213857000000     -3.53538749000000      1.26465760000000
  C   0.45977863000000     -1.29678741000000     -3.84026115000000
  O   1.46706005000000     -1.68096758000000     -4.22688891000000
  O   -0.44238368000000     -1.84293892000000     -3.12786363000000
  O   -0.08880466000000     -0.10444924000000     -4.42777482000000
  H   2.73124437000000     -2.74237711000000      0.53875083000000
  H   1.59495812000000     -4.11709538000000     -0.63944283000000
  H   0.64916415000000      0.25914123000000     -4.89395265000000
