38
Coordinates from ORCA-job 3_14_orca
  C   -2.31344430000000     -0.15770450000000      0.72770073000000
  C   -1.90479466000000      1.00674009000000      1.39599243000000
  C   -3.65576600000000     -0.51352267000000      0.84452354000000
  C   -4.62983076000000      0.40703562000000      1.24687076000000
  C   -4.22990353000000      1.61251667000000      1.80353136000000
  C   -2.87273177000000      1.87687201000000      1.90731968000000
  H   -2.03943060000000     -1.50841411000000     -1.13980063000000
  H   -3.98119464000000     -1.46131394000000      0.43479751000000
  H   -2.56813197000000      2.78130010000000      2.43096971000000
  H   -5.68962033000000      0.16464521000000      1.16454342000000
  H   -4.96526294000000      2.34361609000000      2.13106332000000
  C   -0.47624967000000      1.48763387000000      1.48630295000000
  C   0.62942429000000      0.46513273000000      1.80070748000000
  H   -0.45224864000000      2.25467496000000      2.24709646000000
  H   -0.19518038000000      2.02058545000000      0.57478873000000
  C   1.72914322000000      0.56220034000000      0.78967600000000
  H   0.22304100000000     -0.53923141000000      1.82804340000000
  H   1.03211658000000      0.66174988000000      2.79505937000000
  C   1.65732101000000     -0.11371587000000     -0.43950797000000
  C   2.68153501000000      0.13003486000000     -1.36200000000000
  C   3.67769949000000      1.08277367000000     -1.12267574000000
  C   2.81951654000000      1.39152207000000      1.06844460000000
  C   3.74678064000000      1.73386854000000      0.09785654000000
  H   2.70514242000000     -0.38323021000000     -2.31512989000000
  H   4.42251064000000      1.30777408000000     -1.87855146000000
  H   2.90663290000000      1.85155432000000      2.04795989000000
  H   4.54289975000000      2.44493321000000      0.31030086000000
  Pd  0.14104686000000     -1.42372163000000     -0.78407896000000
  Br  -1.64631139000000     -3.45892778000000     -0.85632849000000
  P   1.42097333000000     -2.95822382000000      0.10860706000000
  H   0.90766197000000     -3.53898757000000      1.26979938000000
  C   0.38230706000000     -1.29978363000000     -3.85010491000000
  O   1.51961701000000     -1.69649479000000     -4.23214342000000
  O   -0.43363217000000     -1.83595018000000     -3.11946737000000
  O   -0.08684245000000     -0.10484488000000     -4.40603234000000
  H   2.73174581000000     -2.74445119000000      0.53005418000000
  H   1.60045054000000     -4.11913127000000     -0.64392092000000
  H   0.64982656000000      0.26532376000000     -4.89613231000000
