38
Coordinates from ORCA-job 3_3_orca
  C   -2.33910671000000     -0.11906169000000      0.79425683000000
  C   -1.89196826000000      0.98028544000000      1.44901660000000
  C   -3.68504356000000     -0.47707852000000      0.80849059000000
  C   -4.64166187000000      0.43912911000000      1.22827294000000
  C   -4.24625857000000      1.61945978000000      1.80941277000000
  C   -2.91124603000000      1.86257294000000      2.00747543000000
  H   -2.55359113000000     -1.37987610000000     -1.59635473000000
  H   -3.98932086000000     -1.49427856000000      0.67449642000000
  H   -2.61394567000000      2.86573698000000      2.26296316000000
  H   -5.69301562000000      0.24503417000000      1.03529081000000
  H   -4.98327633000000      2.30274555000000      2.19324168000000
  C   -0.49958861000000      1.52128098000000      1.56624960000000
  C   0.69442509000000      0.45907580000000      1.81469740000000
  H   -0.38871410000000      2.25970661000000      2.31376098000000
  H   -0.35647482000000      2.01110048000000      0.61280443000000
  C   1.77756234000000      0.60393074000000      0.81115046000000
  H   0.28971564000000     -0.53587265000000      1.83072039000000
  H   1.08230003000000      0.63706928000000      2.81085637000000
  C   1.70167038000000     -0.00403483000000     -0.44888340000000
  C   2.72993413000000      0.17529549000000     -1.36858069000000
  C   3.72894179000000      1.13053383000000     -1.11011886000000
  C   2.87405280000000      1.40583560000000      1.09474756000000
  C   3.80365462000000      1.74339205000000      0.10769828000000
  H   2.79834827000000     -0.40907172000000     -2.26255327000000
  H   4.47980397000000      1.33303662000000     -1.87695393000000
  H   3.03083152000000      1.75248978000000      2.10897208000000
  H   4.48757850000000      2.57222292000000      0.27937108000000
  Pd  0.17292960000000     -1.35231390000000     -0.85310908000000
  Br  -1.49223220000000     -3.71317050000000     -0.84336181000000
  P   1.41225864000000     -3.00579948000000      0.10299983000000
  H   0.90068310000000     -3.55016975000000      1.28874333000000
  C   0.32892565000000     -1.44094661000000     -3.91314329000000
  O   1.60155699000000     -1.68399213000000     -4.20474025000000
  O   -0.46717585000000     -1.95909016000000     -3.18976738000000
  O   -0.10482992000000     -0.12497396000000     -4.39065216000000
  H   2.71741846000000     -2.79550908000000      0.52708553000000
  H   1.64269213000000     -4.17017738000000     -0.62947473000000
  H   0.59978885000000      0.29714582000000     -4.84499700000000
