38
Coordinates from ORCA-job 3_9_orca
  C   -2.35857678000000     -0.20669256000000      0.84056517000000
  C   -1.92574548000000      1.06573594000000      1.34609129000000
  C   -3.71024517000000     -0.53821099000000      0.85706849000000
  C   -4.66004854000000      0.35590362000000      1.34827422000000
  C   -4.26432034000000      1.63502118000000      1.80341071000000
  C   -2.90355458000000      1.93629635000000      1.86187433000000
  H   -2.13092542000000     -1.40274048000000     -1.17341211000000
  H   -3.99586683000000     -1.51547826000000      0.43409775000000
  H   -2.54058412000000      2.77355405000000      2.48221517000000
  H   -5.71421755000000      0.17619574000000      1.15043081000000
  H   -4.96976707000000      2.37300288000000      2.16186319000000
  C   -0.47187744000000      1.49446946000000      1.45320771000000
  C   0.63596351000000      0.46140707000000      1.79815163000000
  H   -0.46079373000000      2.30106809000000      2.25668140000000
  H   -0.19922710000000      1.97591105000000      0.51799158000000
  C   1.77992313000000      0.52530439000000      0.80061416000000
  H   0.22191049000000     -0.56787065000000      1.78845478000000
  H   1.03929641000000      0.68480742000000      2.79682036000000
  C   1.70990361000000     -0.17562370000000     -0.44474015000000
  C   2.71381882000000      0.13501839000000     -1.36828733000000
  C   3.69820597000000      1.09325915000000     -1.13464860000000
  C   2.79865534000000      1.46861230000000      1.05571888000000
  C   3.76634206000000      1.76995808000000      0.11266618000000
  H   2.72562849000000     -0.40286470000000     -2.33641577000000
  H   4.45127298000000      1.31948647000000     -1.87246418000000
  H   2.94251201000000      1.83672287000000      2.08143344000000
  H   4.57543780000000      2.45782539000000      0.32964947000000
  Pd  0.06082778000000     -1.50972599000000     -0.88399932000000
  Br  -1.55838120000000     -3.49451068000000     -0.84514358000000
  P   1.41494700000000     -2.94730580000000      0.11697535000000
  H   0.87828869000000     -3.53520729000000      1.27477044000000
  C   0.48663250000000     -1.26612374000000     -3.92490115000000
  O   1.48131667000000     -1.66113766000000     -4.22878796000000
  O   -0.46429276000000     -1.86773057000000     -3.06257965000000
  O   -0.09633281000000     -0.14966418000000     -4.41250476000000
  H   2.75228514000000     -2.74215722000000      0.57411102000000
  H   1.59250653000000     -4.13506165000000     -0.63403470000000
  H   0.68653776000000      0.27844935000000     -4.92302526000000
