38
Coordinates from ORCA-job 5_0_orca
  C   -2.34378677000000     -0.12270826000000      0.72994584000000
  C   -1.90193964000000      0.94244057000000      1.53942563000000
  C   -3.68818254000000     -0.47367845000000      0.87071349000000
  C   -4.64475341000000      0.48535931000000      1.17633093000000
  C   -4.22827412000000      1.60819656000000      1.86973352000000
  C   -2.86939908000000      1.83326340000000      2.02686436000000
  H   -2.62551002000000     -1.36941838000000     -1.60456461000000
  H   -4.03172844000000     -1.48838237000000      0.72015700000000
  H   -2.63111472000000      2.86798050000000      2.26868705000000
  H   -5.70253747000000      0.27169755000000      1.08090588000000
  H   -4.96679810000000      2.31194316000000      2.23535431000000
  C   -0.48877034000000      1.47025710000000      1.50189701000000
  C   0.64878738000000      0.49962548000000      1.78995234000000
  H   -0.35642000000000      2.26725731000000      2.24773195000000
  H   -0.41174677000000      2.01307884000000      0.55432939000000
  C   1.77128378000000      0.62253144000000      0.79298729000000
  H   0.29649373000000     -0.53401550000000      1.83577657000000
  H   1.07061021000000      0.63794956000000      2.79630516000000
  C   1.68579088000000     -0.00173810000000     -0.46109281000000
  C   2.74874880000000      0.18058042000000     -1.34563788000000
  C   3.75229549000000      1.11437071000000     -1.10893485000000
  C   2.90726381000000      1.37068869000000      1.10410033000000
  C   3.79179879000000      1.77187297000000      0.11051577000000
  H   2.82923967000000     -0.40787756000000     -2.25088259000000
  H   4.49492922000000      1.33538604000000     -1.86694002000000
  H   3.01333704000000      1.78419544000000      2.10205245000000
  H   4.47201765000000      2.59971261000000      0.27152217000000
  Pd  0.27017680000000     -1.32433083000000     -0.81397210000000
  Br  -1.48193739000000     -3.79031491000000     -0.89468303000000
  P   1.37499912000000     -3.00622733000000      0.09742840000000
  H   0.87411443000000     -3.55227786000000      1.29126449000000
  C   0.44046812000000     -1.30115584000000     -3.88099355000000
  O   1.52887088000000     -1.72972025000000     -4.19234264000000
  O   -0.44359105000000     -1.98943416000000     -3.26174513000000
  O   -0.11130829000000     -0.18751751000000     -4.40917505000000
  H   2.69623020000000     -2.80395587000000      0.55040856000000
  H   1.66564569000000     -4.18625764000000     -0.61012800000000
  H   0.59469046000000      0.28062415000000     -4.86328114000000
