38
Coordinates from ORCA-job 5_1_orca
  C   -2.35385505000000     -0.12876965000000      0.78188786000000
  C   -1.89012332000000      0.96541117000000      1.45875513000000
  C   -3.69221784000000     -0.47476819000000      0.82119623000000
  C   -4.64079056000000      0.46181251000000      1.23270281000000
  C   -4.22482208000000      1.62124808000000      1.83543363000000
  C   -2.90629079000000      1.85288592000000      2.01560974000000
  H   -2.56853598000000     -1.38737297000000     -1.57354060000000
  H   -4.02203482000000     -1.48510701000000      0.67619446000000
  H   -2.60663484000000      2.85574858000000      2.29221529000000
  H   -5.69906564000000      0.26616303000000      1.06959896000000
  H   -4.96105070000000      2.32165501000000      2.22079389000000
  C   -0.49182079000000      1.49624986000000      1.54035973000000
  C   0.68309326000000      0.46573967000000      1.80183541000000
  H   -0.37845682000000      2.25308366000000      2.26765477000000
  H   -0.38480343000000      2.00485416000000      0.57087993000000
  C   1.77438282000000      0.60587152000000      0.80524347000000
  H   0.29131361000000     -0.53427962000000      1.83091797000000
  H   1.06967211000000      0.64733032000000      2.79656673000000
  C   1.70911402000000     -0.01527042000000     -0.44372007000000
  C   2.73986520000000      0.17274866000000     -1.36212236000000
  C   3.73867394000000      1.13161379000000     -1.10201007000000
  C   2.87953823000000      1.40798830000000      1.09701806000000
  C   3.79463006000000      1.75816850000000      0.10697277000000
  H   2.81021990000000     -0.40575175000000     -2.25666845000000
  H   4.48606094000000      1.33330975000000     -1.87059171000000
  H   3.00852102000000      1.78850793000000      2.10205834000000
  H   4.48237545000000      2.58829094000000      0.27767615000000
  Pd  0.20124457000000     -1.35011786000000     -0.85331748000000
  Br  -1.48415844000000     -3.75586994000000     -0.87740290000000
  P   1.40083522000000     -3.01309962000000      0.10647030000000
  H   0.88184459000000     -3.55362806000000      1.28404571000000
  C   0.30238800000000     -1.44044645000000     -3.87284631000000
  O   1.61136334000000     -1.69127550000000     -4.20515656000000
  O   -0.41706488000000     -1.93589840000000     -3.22450097000000
  O   -0.09022555000000     -0.13667634000000     -4.41006853000000
  H   2.70221740000000     -2.79692996000000      0.54175262000000
  H   1.65195870000000     -4.17705681000000     -0.62244285000000
  H   0.59037066000000      0.28556549000000     -4.85973256000000
