38
Coordinates from ORCA-job 5_2_orca
  C   -2.35449232000000     -0.13406928000000      0.79279456000000
  C   -1.89431895000000      0.98263839000000      1.44249866000000
  C   -3.69684266000000     -0.47220188000000      0.80872498000000
  C   -4.64072839000000      0.44799489000000      1.24510556000000
  C   -4.23106321000000      1.62838896000000      1.82667387000000
  C   -2.90235176000000      1.85593831000000      2.00445999000000
  H   -2.54557815000000     -1.39449382000000     -1.55938628000000
  H   -4.01853278000000     -1.48526464000000      0.65703472000000
  H   -2.59833739000000      2.85220798000000      2.30170212000000
  H   -5.69659341000000      0.26403277000000      1.06640421000000
  H   -4.95894729000000      2.32497094000000      2.21394107000000
  C   -0.48735212000000      1.49377882000000      1.54273165000000
  C   0.68682605000000      0.46176892000000      1.80564661000000
  H   -0.38694723000000      2.25322437000000      2.28295454000000
  H   -0.37251590000000      2.00308513000000      0.58007867000000
  C   1.77861353000000      0.60133318000000      0.80921858000000
  H   0.28855699000000     -0.53811697000000      1.82979285000000
  H   1.07165255000000      0.64993449000000      2.79973374000000
  C   1.71211509000000     -0.02461369000000     -0.44158496000000
  C   2.73763410000000      0.17465680000000     -1.36181774000000
  C   3.73253777000000      1.13148043000000     -1.10764850000000
  C   2.87004885000000      1.41919870000000      1.09352021000000
  C   3.79490012000000      1.75891394000000      0.11148570000000
  H   2.80188994000000     -0.40638800000000     -2.26264175000000
  H   4.48138637000000      1.33293117000000     -1.87079809000000
  H   3.00629330000000      1.79138196000000      2.10238623000000
  H   4.48582085000000      2.58213067000000      0.27971326000000
  Pd  0.18199767000000     -1.35922442000000     -0.86121489000000
  Br  -1.48591866000000     -3.74166503000000     -0.87081203000000
  P   1.40583266000000     -3.01160593000000      0.10577784000000
  H   0.88506951000000     -3.55471898000000      1.28219585000000
  C   0.37017638000000     -1.42235023000000     -3.94131853000000
  O   1.60010516000000     -1.67874871000000     -4.19961669000000
  O   -0.47807695000000     -1.96938984000000     -3.15692432000000
  O   -0.10311720000000     -0.13616118000000     -4.39802250000000
  H   2.70743414000000     -2.79378411000000      0.53879887000000
  H   1.64706720000000     -4.17451077000000     -0.62792971000000
  H   0.60255516000000      0.28989737000000     -4.86406814000000
