38
Coordinates from ORCA-job 5_4_orca
  C   -2.34800109000000     -0.15646932000000      0.80991288000000
  C   -1.91779136000000      1.04208801000000      1.40451422000000
  C   -3.70290318000000     -0.46909248000000      0.77645576000000
  C   -4.64837564000000      0.41559689000000      1.27574373000000
  C   -4.24398559000000      1.63853636000000      1.79453597000000
  C   -2.87976345000000      1.87487390000000      1.94494342000000
  H   -2.44086066000000     -1.42942325000000     -1.49450610000000
  H   -4.00435335000000     -1.48555224000000      0.56842326000000
  H   -2.56746350000000      2.83987072000000      2.34026791000000
  H   -5.68898031000000      0.25175877000000      1.05591106000000
  H   -4.95866211000000      2.34462000000000      2.18477743000000
  C   -0.46415975000000      1.47591022000000      1.54912663000000
  C   0.68065056000000      0.45834601000000      1.82085709000000
  H   -0.42235652000000      2.24833220000000      2.35011553000000
  H   -0.31161611000000      2.00583732000000      0.62097841000000
  C   1.78978549000000      0.58091302000000      0.81471264000000
  H   0.27847628000000     -0.55797567000000      1.82868765000000
  H   1.08469602000000      0.65613102000000      2.81912166000000
  C   1.70205793000000     -0.06863714000000     -0.43503143000000
  C   2.72445235000000      0.17903890000000     -1.36131463000000
  C   3.71027641000000      1.13055448000000     -1.12226952000000
  C   2.84381477000000      1.45676956000000      1.08417555000000
  C   3.78689656000000      1.76374898000000      0.11818420000000
  H   2.76487533000000     -0.40319749000000     -2.28393179000000
  H   4.46107895000000      1.33289098000000     -1.87356787000000
  H   2.99397223000000      1.80739820000000      2.10220865000000
  H   4.50267680000000      2.55663926000000      0.28884115000000
  Pd  0.12600871000000     -1.39940207000000     -0.87900416000000
  Br  -1.49999167000000     -3.67921893000000     -0.84052887000000
  P   1.41100052000000     -2.99316950000000      0.09388849000000
  H   0.90229257000000     -3.56098500000000      1.27518455000000
  C   0.41918886000000     -1.39971214000000     -3.98179494000000
  O   1.54594418000000     -1.65162980000000     -4.19582226000000
  O   -0.50688616000000     -1.98369359000000     -3.09428693000000
  O   -0.11243159000000     -0.16463730000000     -4.37187380000000
  H   2.73526457000000     -2.78048597000000      0.52485496000000
  H   1.62805264000000     -4.16521443000000     -0.65274274000000
  H   0.62035226000000      0.29323582000000     -4.86102883000000
