30
autodE path point 0. E = none charge = 0 mult = 1 
Lu    0.13111  -0.50802   0.36757
C     0.61193   0.31185   2.74454
C     1.81608  -0.27162   2.29224
C     2.32957   0.53465   1.25633
C     1.43818   1.60555   1.05464
C     0.37678   1.46758   1.97669
H     1.56434   2.40515   0.33816
H    -0.46641   2.13543   2.08091
H    -0.02377  -0.06565   3.53094
H     2.28605  -1.15754   2.69658
H     3.24896   0.36501   0.71638
C     0.51614  -0.19466  -2.17519
C    -0.59535  -1.05764  -2.05819
C     1.24028  -2.16116  -1.27792
C     1.65142  -0.88215  -1.70424
H     0.50712   0.80019  -2.59746
C    -0.14981  -2.27091  -1.50672
H    -1.61099  -0.83070  -2.34714
H     2.66113  -0.50063  -1.69114
H     1.88617  -2.94079  -0.89899
H    -0.76610  -3.13206  -1.29644
C    -1.99763  -1.15350   1.05346
H    -2.37406  -0.74151   1.99465
H    -2.05364  -2.24652   1.15834
H    -2.75313  -0.91636   0.29263
C    -1.89263   2.28084  -1.20132
H    -2.01089   1.49015  -0.46162
H    -0.86844   2.64667  -1.19905
H    -2.56572   3.09649  -0.95251
H    -2.13670   1.89189  -2.18615
30
autodE path point 1. E = none charge = 0 mult = 1 
Lu    0.15179  -0.40548   0.28409
C     0.55413   0.45686   2.68233
C     1.71084  -0.23998   2.29117
C     2.34262   0.50396   1.28221
C     1.56139   1.63692   1.01298
C     0.47916   1.62016   1.90829
H     1.78866   2.41552   0.30104
H    -0.25326   2.40174   2.03254
H    -0.11921   0.18208   3.47761
H     2.05124  -1.17196   2.71724
H     3.26258   0.23979   0.78654
C     0.63711  -0.16306  -2.25679
C    -0.51451  -0.96629  -2.19167
C     1.19861  -2.14004  -1.28158
C     1.70376  -0.90437  -1.72121
H     0.70668   0.81230  -2.71389
C    -0.18011  -2.17490  -1.56847
H    -1.48507  -0.74624  -2.60593
H     2.73064  -0.58057  -1.65989
H     1.76051  -2.94069  -0.82336
H    -0.85579  -2.99775  -1.39501
C    -2.02684  -1.31420   1.12651
H    -2.38018  -0.94279   2.09241
H    -2.08364  -2.41006   1.19408
H    -2.79977  -1.06631   0.39006
C    -1.91783   2.23250  -1.11920
H    -2.21886   1.12872  -0.11470
H    -0.93549   2.67242  -1.27586
H    -2.59484   3.01815  -0.78022
H    -2.27432   1.84361  -2.07131
30
autodE path point 2. E = none charge = 0 mult = 1 
Lu    0.18080  -0.23161   0.16196
C     0.50490   0.62727   2.61287
C     1.59546  -0.18924   2.28336
C     2.36518   0.48822   1.33169
C     1.70269   1.67041   0.98759
C     0.58662   1.77830   1.82802
H     2.02307   2.41381   0.27578
H    -0.04815   2.64423   1.91617
H    -0.20496   0.45228   3.40337
H     1.79462  -1.15344   2.72351
H     3.26451   0.11637   0.87168
C     0.77321  -0.13409  -2.34775
C    -0.43032  -0.85570  -2.32375
C     1.14646  -2.10983  -1.29901
C     1.76210  -0.94000  -1.76457
H     0.91927   0.82384  -2.82164
C    -0.21781  -2.05192  -1.63422
H    -1.34048  -0.60816  -2.84363
H     2.79686  -0.66985  -1.63155
H     1.61271  -2.92076  -0.76044
H    -0.95478  -2.82595  -1.49444
C    -2.10804  -1.48758   1.18677
H    -2.34088  -1.17045   2.20631
H    -2.10041  -2.58630   1.22003
H    -2.98236  -1.27883   0.56100
C    -1.93125   2.15603  -1.02879
H    -2.32084   0.72326   0.20201
H    -1.03074   2.68017  -1.34311
H    -2.59659   2.88867  -0.56620
H    -2.42085   1.75084  -1.91302
30
autodE path point 3. E = none charge = 0 mult = 1 
Lu    0.31995   0.10202  -0.06429
C     0.47937   0.82049   2.55688
C     1.45592  -0.12778   2.23429
C     2.37806   0.48450   1.38129
C     1.87950   1.73774   1.02229
C     0.68958   1.93023   1.73729
H     2.27569   2.42783   0.29585
H     0.10978   2.83720   1.76258
H    -0.27359   0.73043   3.32173
H     1.52663  -1.10236   2.68782
H     3.24433   0.00355   0.96242
C     0.93054  -0.13218  -2.49653
C    -0.33225  -0.74583  -2.47169
C     1.08188  -2.03781  -1.28907
C     1.82354  -0.98100  -1.83009
H     1.13889   0.82155  -2.95511
C    -0.24407  -1.92907  -1.73423
H    -1.19651  -0.44517  -3.03970
H     2.85771  -0.76945  -1.61425
H     1.44916  -2.85766  -0.69259
H    -1.03708  -2.64807  -1.60573
C    -2.31001  -1.65327   1.30382
H    -2.31210  -1.39422   2.36046
H    -2.26666  -2.73382   1.16885
H    -3.28182  -1.39836   0.86396
C    -1.93790   2.01543  -0.90815
H    -2.13801   0.17100   0.39831
H    -1.18278   2.64742  -1.37238
H    -2.57701   2.64582  -0.28681
H    -2.55073   1.58085  -1.69724
30
autodE path point 4. E = none charge = 0 mult = 1 
Lu    0.44308   0.50239  -0.32564
C     0.45687   1.00687   2.51319
C     1.33633  -0.03992   2.19917
C     2.32884   0.47607   1.36171
C     2.02668   1.81186   1.08663
C     0.76426   2.06271   1.64872
H     2.51948   2.46608   0.38465
H     0.21473   2.98852   1.61875
H    -0.36034   0.98925   3.21785
H     1.31959  -1.01551   2.65830
H     3.17604  -0.08855   1.01465
C     1.06364  -0.14846  -2.66179
C    -0.25106  -0.64342  -2.60519
C     1.01720  -1.95050  -1.28402
C     1.84731  -0.97065  -1.84239
H     1.33256   0.78566  -3.13142
C    -0.23114  -1.87032  -1.92889
H    -1.09775  -0.28188  -3.16495
H     2.88573  -0.84453  -1.58565
H     1.31234  -2.77455  -0.65285
H    -1.06553  -2.54793  -1.81155
C    -2.59763  -1.75852   1.47325
H    -2.37691  -1.53398   2.50789
H    -2.64172  -2.76955   1.10579
H    -3.39474  -1.15665   1.08088
C    -1.92962   1.79785  -0.74124
H    -1.52978  -0.65623   0.59682
H    -1.40912   2.55603  -1.33442
H    -2.53019   2.31809   0.00754
H    -2.62915   1.28975  -1.40578
30
autodE path point 5. E = none charge = 0 mult = 1 
Lu    0.22873   0.36656  -0.22538
C     0.36257   1.00983   2.42261
C     1.33779   0.02044   2.25524
C     2.26842   0.45399   1.30666
C     1.94674   1.77784   0.99091
C     0.72280   2.08265   1.60464
H     2.48837   2.41771   0.31315
H     0.20289   3.02564   1.57991
H    -0.49036   1.01416   3.08147
H     1.38310  -0.93689   2.75034
H     3.13885  -0.09659   0.99285
C     1.03096  -0.08534  -2.59382
C    -0.28314  -0.58099  -2.57994
C     1.00272  -1.96967  -1.34952
C     1.80978  -0.90547  -1.76608
H     1.35566   0.81539  -3.09131
C    -0.27295  -1.80979  -1.91462
H    -1.11381  -0.22387  -3.16568
H     2.85927  -0.79739  -1.54728
H     1.33944  -2.79083  -0.73450
H    -1.13798  -2.45214  -1.83926
C    -2.56960  -1.65990   1.43496
H    -2.49142  -1.44542   2.47823
H    -2.95846  -2.60938   1.08566
H    -2.66703  -0.79046   0.79716
C    -1.91928   1.78171  -0.72491
H    -0.97460  -1.72627   1.09211
H    -1.46310   2.56342  -1.34054
H    -2.49956   2.29354   0.04656
H    -2.63682   1.25753  -1.35964
30
autodE path point 6. E = none charge = 0 mult = 1 
Lu    0.12042   0.42874  -0.28000
C     0.17963   1.15615   2.19054
C     1.02904   0.03068   2.11439
C     2.15013   0.38305   1.33973
C     1.99070   1.72133   0.92554
C     0.77449   2.20088   1.46118
H     2.69909   2.29131   0.34087
H     0.36543   3.19184   1.33125
H    -0.76043   1.20984   2.71996
H     0.86700  -0.92232   2.59763
H     2.99031  -0.25647   1.11492
C     1.14140  -0.04440  -2.59562
C    -0.21370  -0.43136  -2.68604
C     0.84022  -1.86120  -1.25171
C     1.79240  -0.93563  -1.71825
H     1.60958   0.76323  -3.14098
C    -0.39901  -1.54924  -1.85316
H    -0.97545   0.04688  -3.28238
H     2.84052  -0.91925  -1.45957
H     1.03333  -2.68535  -0.57946
H    -1.32717  -2.08388  -1.70900
C    -2.04571  -1.76530   1.42181
H    -2.18071  -1.68564   2.49699
H    -2.69749  -2.53854   1.02423
H    -2.30740  -0.81350   0.95936
C    -1.85870   1.60331  -0.61471
H    -1.01219  -2.03830   1.21528
H    -1.69659   2.46323  -1.28040
H    -2.29974   2.02244   0.29641
H    -2.64941   1.01746  -1.09880
