39
Coordinates from ORCA-job 2_10_orca
  Ir  0.45314444000000     -0.69194711000000      0.98155002000000
  C   -0.08642590000000     -2.69828889000000      1.65441118000000
  C   0.82653483000000     -2.10977718000000      2.58869426000000
  C   1.88759848000000     -2.34833755000000      0.57500488000000
  C   0.60705503000000     -2.87668899000000      0.41578997000000
  C   2.02779103000000     -1.83548368000000      1.92189020000000
  N   -0.98497512000000     -0.00783814000000     -0.44585595000000
  C   -2.42301123000000      0.07447621000000      0.02477462000000
  C   -2.85770329000000      1.50142876000000      0.32364541000000
  H   -3.89150660000000      1.46654718000000      0.67454983000000
  H   -2.83383726000000      2.12661491000000     -0.56916497000000
  H   -2.25771391000000      1.94428127000000      1.11354477000000
  C   -3.37495966000000     -0.59588292000000     -0.95946678000000
  H   -2.44302486000000     -0.49703310000000      0.95380684000000
  H   -4.35181750000000     -0.66479641000000     -0.48096742000000
  H   -3.53034762000000     -0.01546170000000     -1.87043606000000
  H   -3.06771667000000     -1.60561255000000     -1.22785584000000
  C   -0.68698258000000      0.29225520000000     -1.66276115000000
  C   0.63931903000000      0.21540431000000     -2.24341729000000
  H   -1.52657827000000      0.55432349000000     -2.31619888000000
  C   1.91795097000000      0.35637695000000     -1.70568067000000
  C   2.90452690000000      0.01140213000000     -2.64458018000000
  S   0.72924818000000      0.04859541000000     -3.98241654000000
  C   2.42759875000000     -0.05674194000000     -3.91665773000000
  H   2.13667908000000      0.82176420000000     -0.80579699000000
  H   3.94026464000000      0.03372718000000     -2.37833211000000
  H   3.02985060000000     -0.15483825000000     -4.80040057000000
  H   -0.99559340000000     -3.21895668000000      1.93109623000000
  H   0.60113996000000     -1.92537630000000      3.62660208000000
  H   2.92251107000000     -1.41101604000000      2.34203931000000
  O   1.67262542000000      1.64512123000000      0.75325202000000
  O   -0.02542843000000      1.03364364000000      1.99921457000000
  C   0.82382143000000      1.93382798000000      1.57861270000000
  C   0.71742477000000      3.33560023000000      2.17719975000000
  H   0.80945064000000      4.08611045000000      1.38803848000000
  H   1.56839450000000      3.50607355000000      2.84558715000000
  H   -0.19695786000000      3.51411226000000      2.74024909000000
  H   2.67711155000000     -2.37426860000000     -0.15776432000000
  H   0.21231546000000     -3.40685965000000     -0.43838320000000
