39
Coordinates from ORCA-job 2_2_orca
  Ir  0.44566701000000     -0.70062448000000      0.92149892000000
  C   -0.07612477000000     -2.69933857000000      1.72782156000000
  C   0.88618715000000     -2.09033566000000      2.58464127000000
  C   1.80688290000000     -2.30989370000000      0.49596862000000
  C   0.51851660000000     -2.84659716000000      0.44185637000000
  C   2.04298424000000     -1.85233546000000      1.84575531000000
  N   -0.96328375000000      0.01336091000000     -0.41862514000000
  C   -2.39675635000000      0.09640255000000      0.00946132000000
  C   -2.86533849000000      1.51560632000000      0.26493018000000
  H   -3.89707408000000      1.51423832000000      0.63624260000000
  H   -2.83380901000000      2.11203020000000     -0.63873642000000
  H   -2.27292078000000      2.00738652000000      1.02277027000000
  C   -3.36175520000000     -0.60742384000000     -0.94096594000000
  H   -2.44321072000000     -0.41736120000000      0.95353700000000
  H   -4.35011907000000     -0.67738072000000     -0.46956221000000
  H   -3.50212284000000     -0.06981946000000     -1.87634846000000
  H   -3.04381909000000     -1.61693568000000     -1.16999489000000
  C   -0.68352215000000      0.27741001000000     -1.64660569000000
  C   0.59775304000000      0.20795033000000     -2.27383363000000
  H   -1.49902696000000      0.55054217000000     -2.29505947000000
  C   1.89188055000000      0.19732867000000     -1.66505248000000
  C   2.90166922000000      0.05966006000000     -2.64798499000000
  S   0.75206450000000      0.06056766000000     -3.98717939000000
  C   2.44956408000000     -0.04310693000000     -3.91653559000000
  H   2.24291263000000      0.97399538000000     -0.81817537000000
  H   3.96333029000000      0.05684950000000     -2.40941774000000
  H   3.04398452000000     -0.17580424000000     -4.80630332000000
  H   -0.94813756000000     -3.23321249000000      2.05483722000000
  H   0.74322341000000     -1.96035167000000      3.65258158000000
  H   2.96476641000000     -1.45032488000000      2.19006522000000
  O   1.61943610000000      1.65490940000000      0.81668621000000
  O   -0.04017475000000      1.00987157000000      2.02298811000000
  C   0.78379132000000      1.94781021000000      1.62823432000000
  C   0.70060198000000      3.33312330000000      2.21763651000000
  H   0.80802765000000      4.06907860000000      1.41928640000000
  H   1.54152166000000      3.49561159000000      2.89645061000000
  H   -0.21338864000000      3.50036226000000      2.75660104000000
  H   2.58736311000000     -2.47422860000000     -0.22180725000000
  H   0.09824188000000     -3.42832809000000     -0.35731492000000
