39
Coordinates from ORCA-job 2_3_orca
  Ir  0.46358305000000     -0.68355220000000      0.95776533000000
  C   -0.08487703000000     -2.70953831000000      1.66554681000000
  C   0.82865602000000     -2.10731659000000      2.57651107000000
  C   1.85912153000000     -2.33529509000000      0.55598500000000
  C   0.59886031000000     -2.86373138000000      0.41242094000000
  C   2.02089227000000     -1.83217467000000      1.91919732000000
  N   -0.98291043000000     -0.00670218000000     -0.44716325000000
  C   -2.43466714000000      0.07970979000000      0.03471235000000
  C   -2.85752265000000      1.49985513000000      0.31344686000000
  H   -3.89688599000000      1.47142928000000      0.67646803000000
  H   -2.83360487000000      2.11829000000000     -0.57038851000000
  H   -2.26802691000000      1.94393066000000      1.10245414000000
  C   -3.36985555000000     -0.59695270000000     -0.96084550000000
  H   -2.44579982000000     -0.48086227000000      0.94481657000000
  H   -4.35821106000000     -0.66649458000000     -0.47763600000000
  H   -3.52822426000000     -0.02070643000000     -1.86982951000000
  H   -3.06950766000000     -1.60034361000000     -1.21952516000000
  C   -0.70437633000000      0.29117972000000     -1.67274413000000
  C   0.63148425000000      0.18681952000000     -2.25453722000000
  H   -1.52720578000000      0.55243531000000     -2.30393256000000
  C   1.96165365000000      0.37408882000000     -1.55381263000000
  C   2.88649070000000     -0.00736969000000     -2.63263981000000
  S   0.72636542000000      0.06876321000000     -4.01425597000000
  C   2.43605096000000     -0.03709692000000     -3.91813995000000
  H   2.14895277000000      0.83574512000000     -0.90895561000000
  H   3.93512961000000      0.03503257000000     -2.37951484000000
  H   3.04030522000000     -0.15558767000000     -4.79827690000000
  H   -0.96853574000000     -3.25634907000000      1.95042719000000
  H   0.61469881000000     -1.94806207000000      3.62743740000000
  H   2.91087971000000     -1.42715235000000      2.31582418000000
  O   1.69116730000000      1.67786511000000      0.73962650000000
  O   -0.04076170000000      1.01544342000000      2.00028792000000
  C   0.83526196000000      1.94788218000000      1.57097291000000
  C   0.71357920000000      3.35459260000000      2.18835186000000
  H   0.81328389000000      4.09167752000000      1.38972568000000
  H   1.57103912000000      3.51250767000000      2.85288947000000
  H   -0.19365604000000      3.51351542000000      2.73969603000000
  H   2.66875185000000     -2.40940548000000     -0.14074087000000
  H   0.20754933000000     -3.42325183000000     -0.41021866000000
