39
Coordinates from ORCA-job 2_5_orca
  Ir  0.45653444000000     -0.68230858000000      0.97546957000000
  C   -0.08653995000000     -2.69991012000000      1.67617733000000
  C   0.84794293000000     -2.10702937000000      2.58709722000000
  C   1.86027431000000     -2.34442834000000      0.54690300000000
  C   0.58078248000000     -2.86847557000000      0.41985426000000
  C   2.03206839000000     -1.83721712000000      1.90008697000000
  N   -0.98228779000000     -0.00391261000000     -0.44572026000000
  C   -2.42649863000000      0.08542170000000      0.02643800000000
  C   -2.86002528000000      1.50926784000000      0.30417303000000
  H   -3.89262406000000      1.47971748000000      0.66142692000000
  H   -2.83499399000000      2.12217642000000     -0.59332736000000
  H   -2.26227111000000      1.96369457000000      1.08625792000000
  C   -3.36876664000000     -0.60025413000000     -0.95409565000000
  H   -2.44268311000000     -0.47389589000000      0.95710372000000
  H   -4.34912427000000     -0.66762803000000     -0.47715778000000
  H   -3.52232138000000     -0.03211166000000     -1.87324341000000
  H   -3.06032988000000     -1.61129680000000     -1.20957675000000
  C   -0.68632935000000      0.28993023000000     -1.66898934000000
  C   0.65221491000000      0.20008426000000     -2.22949859000000
  H   -1.52848363000000      0.55495157000000     -2.30954017000000
  C   1.93965315000000      0.35122380000000     -1.66785279000000
  C   2.88970186000000      0.00973790000000     -2.62353778000000
  S   0.72920501000000      0.05484145000000     -3.99843368000000
  C   2.43146587000000     -0.04491462000000     -3.91287248000000
  H   2.15453990000000      0.84384758000000     -0.85623231000000
  H   3.94250079000000      0.04271273000000     -2.38746515000000
  H   3.03799112000000     -0.16009834000000     -4.80559975000000
  H   -0.97863620000000     -3.23065374000000      1.97380503000000
  H   0.64684651000000     -1.93747220000000      3.63290777000000
  H   2.93681019000000     -1.42370591000000      2.29294354000000
  O   1.66030066000000      1.65715065000000      0.76836863000000
  O   -0.04582305000000      1.02017760000000      2.01319292000000
  C   0.82991803000000      1.92990764000000      1.57880495000000
  C   0.71016083000000      3.34006208000000      2.19330138000000
  H   0.80971945000000      4.08316796000000      1.39723984000000
  H   1.56154887000000      3.50402946000000      2.86287173000000
  H   -0.20571688000000      3.51316967000000      2.74853495000000
  H   2.64786653000000     -2.40842520000000     -0.17638633000000
  H   0.17413289000000     -3.41748078000000     -0.41130774000000
