39
Coordinates from ORCA-job 2_7_orca
  Ir  0.45351808000000     -0.68617697000000      1.00232335000000
  C   -0.09055459000000     -2.69594236000000      1.64751826000000
  C   0.82210958000000     -2.11582114000000      2.58536113000000
  C   1.89479134000000     -2.36216336000000      0.58426533000000
  C   0.62175825000000     -2.88180034000000      0.41133039000000
  C   2.03164832000000     -1.83031109000000      1.93392547000000
  N   -0.99080069000000     -0.01094703000000     -0.45507069000000
  C   -2.43034858000000      0.07193475000000      0.03131292000000
  C   -2.85555123000000      1.50454375000000      0.32903626000000
  H   -3.89053991000000      1.45994202000000      0.67706510000000
  H   -2.83502095000000      2.12956596000000     -0.56375352000000
  H   -2.25396229000000      1.93834566000000      1.12493642000000
  C   -3.37490591000000     -0.59579319000000     -0.96315255000000
  H   -2.44207510000000     -0.50811514000000      0.95660655000000
  H   -4.34988128000000     -0.66247932000000     -0.48211124000000
  H   -3.53401928000000     -0.00956677000000     -1.87007333000000
  H   -3.06972452000000     -1.60642108000000     -1.23435718000000
  C   -0.68088618000000      0.29498216000000     -1.66814388000000
  C   0.65744438000000      0.21620478000000     -2.22390225000000
  H   -1.53535991000000      0.55604414000000     -2.32123182000000
  C   1.91695476000000      0.36927224000000     -1.76363089000000
  C   2.90165403000000      0.00024047000000     -2.64297860000000
  S   0.72461543000000      0.04520326000000     -3.97902534000000
  C   2.42440010000000     -0.05718445000000     -3.90520416000000
  H   2.12493164000000      0.81264965000000     -0.77990156000000
  H   3.93498246000000      0.03254881000000     -2.37425096000000
  H   3.02837966000000     -0.15156085000000     -4.80073692000000
  H   -1.00379573000000     -3.21389529000000      1.91820333000000
  H   0.58606618000000     -1.91744092000000      3.62559506000000
  H   2.91994906000000     -1.40518715000000      2.35946148000000
  O   1.69664442000000      1.63481048000000      0.72642622000000
  O   -0.03219839000000      1.03173002000000      2.00072389000000
  C   0.81813626000000      1.93898008000000      1.58688979000000
  C   0.71754701000000      3.33238784000000      2.17291531000000
  H   0.80918963000000      4.08848549000000      1.38439311000000
  H   1.57151895000000      3.50661931000000      2.84067546000000
  H   -0.19769591000000      3.51759398000000      2.74045979000000
  H   2.68761309000000     -2.35943304000000     -0.15625779000000
  H   0.22101361000000     -3.40449165000000     -0.45164749000000
