39
Coordinates from ORCA-job 2_9_orca
  Ir  0.45275089000000     -0.69766155000000      1.01552508000000
  C   -0.09052536000000     -2.69497400000000      1.59883064000000
  C   0.78091865000000     -2.11999686000000      2.59808648000000
  C   1.95563345000000     -2.36905746000000      0.63800355000000
  C   0.66808861000000     -2.90016010000000      0.40146682000000
  C   2.01561769000000     -1.82857682000000      1.97306363000000
  N   -0.99661513000000     -0.02134107000000     -0.45639762000000
  C   -2.42927853000000      0.05547870000000      0.02608451000000
  C   -2.85329499000000      1.48704525000000      0.36957636000000
  H   -3.88644845000000      1.43309542000000      0.70275132000000
  H   -2.83255763000000      2.13851861000000     -0.51691021000000
  H   -2.24529416000000      1.89924503000000      1.17965112000000
  C   -3.38790153000000     -0.58621657000000     -0.97078455000000
  H   -2.44286484000000     -0.55591222000000      0.95325262000000
  H   -4.35353641000000     -0.65654649000000     -0.49025418000000
  H   -3.55018251000000      0.02447737000000     -1.86578598000000
  H   -3.08443982000000     -1.59679824000000     -1.27133169000000
  C   -0.68828538000000      0.30121605000000     -1.66318773000000
  C   0.64936384000000      0.23578570000000     -2.24084883000000
  H   -1.53684889000000      0.55581414000000     -2.33310370000000
  C   1.91114202000000      0.44503831000000     -1.75677403000000
  C   2.92102188000000     -0.00481831000000     -2.65734614000000
  S   0.71892305000000      0.03410914000000     -3.96417260000000
  C   2.41143560000000     -0.07682774000000     -3.92596427000000
  H   2.06521327000000      0.71685758000000     -0.75955987000000
  H   3.92982928000000      0.01519647000000     -2.35672927000000
  H   3.01477509000000     -0.14107623000000     -4.79459583000000
  H   -1.03648776000000     -3.19621814000000      1.83521589000000
  H   0.49551016000000     -1.89587869000000      3.60758222000000
  H   2.89428849000000     -1.37907497000000      2.45785659000000
  O   1.68992965000000      1.63009212000000      0.72853547000000
  O   0.00309938000000      1.06209575000000      1.97609660000000
  C   0.84655281000000      1.91898461000000      1.54383700000000
  C   0.73265801000000      3.33134514000000      2.14338747000000
  H   0.80921298000000      4.09493508000000      1.36584465000000
  H   1.58570651000000      3.51130172000000      2.80623883000000
  H   -0.18287575000000      3.52104936000000      2.72595541000000
  H   2.74327687000000     -2.29397190000000     -0.11463663000000
  H   0.29827987000000     -3.38473288000000     -0.50225403000000
