9
Coordinates from ORCA-job 10_0_orca
  Pt  -0.62170302000000     -0.71890371000000      0.37156582000000
  Cl  -0.01478511000000     -0.11192510000000      2.55483068000000
  Cl  -2.54833582000000     -1.81607009000000      1.09322676000000
  Cl  -1.06229810000000     -1.29203915000000     -1.86174405000000
  C   0.68695757000000      0.95206258000000     -0.45497776000000
  H   1.36739829000000      1.41885428000000      0.25564440000000
  H   1.10682799000000     -0.84430909000000      0.09621184000000
  H   1.21124494000000      0.75910203000000     -1.38983763000000
  H   -0.12530674000000      1.65322722000000     -0.66490213000000
