9
Coordinates from ORCA-job 10_1_orca
  Pt  -0.42510272000000     -0.68461222000000      0.33020789000000
  Cl  -0.05945727000000     -0.16428882000000      2.56740208000000
  Cl  -2.55659241000000     -1.86709979000000      1.10141690000000
  Cl  -1.13402589000000     -1.26048414000000     -1.82482869000000
  C   0.68840662000000      0.92014378000000     -0.45199552000000
  H   1.37031396000000      1.44933001000000      0.24252655000000
  H   0.96541532000000     -0.74133026000000      0.13499841000000
  H   1.25812201000000      0.73773268000000     -1.38846418000000
  H   -0.10854126000000      1.60946326000000     -0.70858350000000
