9
Coordinates from ORCA-job 10_2_orca
  Pt  -0.54268707000000     -0.70512156000000      0.35494359000000
  Cl  -0.03273937000000     -0.13297069000000      2.55988328000000
  Cl  -2.55165424000000     -1.83657952000000      1.09651847000000
  Cl  -1.09112633000000     -1.27935682000000     -1.84690734000000
  C   0.68753996000000      0.93923404000000     -0.45377916000000
  H   1.36857013000000      1.43110283000000      0.25037218000000
  H   1.04999259000000     -0.80292069000000      0.11180061000000
  H   1.23008538000000      0.75051343000000     -1.38928562000000
  H   -0.11856850000000      1.63563797000000     -0.68245818000000
