9
Coordinates from ORCA-job 10_6_orca
  Pt  -0.52006707000000     -0.68354409000000      0.35305969000000
  Cl  -0.07804455000000     -0.20533888000000      2.57924432000000
  Cl  -2.49470004000000     -1.88138369000000      1.08706798000000
  Cl  -1.17471528000000     -1.22548734000000     -1.80350278000000
  C   0.71471769000000      0.91413304000000     -0.46243996000000
  H   1.36083891000000      1.46189062000000      0.22714092000000
  H   0.99471920000000     -0.66476821000000      0.14235641000000
  H   1.29242212000000      0.70808887000000     -1.36809991000000
  H   -0.09725396000000      1.57324464000000     -0.75285180000000
