21
Coordinates from ORCA-job 6_10_orca
  Sc  1.24347102000000     -0.62066435000000     -1.91018887000000
  C   0.39200494000000     -0.60421349000000      0.22776427000000
  N   -0.45100043000000     -1.36687499000000      0.94854048000000
  C   -0.78676138000000     -0.76538559000000      2.13264914000000
  C   -0.13003025000000      0.41208159000000      2.16871424000000
  N   0.58747578000000      0.48606389000000      1.00576033000000
  C   1.41428992000000      1.60742477000000      0.62333760000000
  H   1.45185429000000      2.32614105000000      1.44506887000000
  H   1.00856124000000      2.11755227000000     -0.24699822000000
  H   2.43770210000000      1.28772456000000      0.41734896000000
  C   -0.96847668000000     -2.65526416000000      0.55100181000000
  H   -0.59972211000000     -2.92199979000000     -0.43446229000000
  H   -2.05577431000000     -2.63073707000000      0.50472431000000
  H   -0.65481286000000     -3.42513960000000      1.25570849000000
  H   -1.45649450000000     -1.21695963000000      2.84846648000000
  H   -0.11018642000000      1.18392414000000      2.92642454000000
  C   -0.19555058000000      1.37852676000000     -2.81847796000000
  H   -0.82379038000000      1.48564276000000     -3.68577436000000
  H   0.47449798000000      2.24887474000000     -2.89763604000000
  H   -0.86956716000000      1.60384929000000     -1.99303467000000
  H   0.10028648000000      0.08018698000000     -3.07175611000000
