21
Coordinates from ORCA-job 6_3_orca
  Sc  1.45113216000000     -1.06289835000000     -1.71898421000000
  C   0.40391268000000     -0.58765902000000      0.24443832000000
  N   -0.46750611000000     -1.34955076000000      0.92429329000000
  C   -0.78239429000000     -0.77960936000000      2.13093616000000
  C   -0.12703617000000      0.39823744000000      2.17828607000000
  N   0.57438016000000      0.50905694000000      0.99758194000000
  C   1.41816480000000      1.63969551000000      0.63472552000000
  H   1.45329689000000      2.35671886000000      1.44658330000000
  H   1.01230747000000      2.14048698000000     -0.25977603000000
  H   2.44240033000000      1.30164684000000      0.44619700000000
  C   -0.97307927000000     -2.65905537000000      0.54793432000000
  H   -0.61529300000000     -2.93021956000000     -0.44391473000000
  H   -2.06192692000000     -2.64980105000000      0.51065364000000
  H   -0.65041537000000     -3.41992714000000      1.25852008000000
  H   -1.43459449000000     -1.23834615000000      2.85943180000000
  H   -0.10472465000000      1.15784300000000      2.94450171000000
  C   -0.27983211000000      1.70108640000000     -2.87169664000000
  H   -0.88274258000000      1.62762760000000     -3.79518713000000
  H   0.40370217000000      2.53670530000000     -2.92299321000000
  H   -0.86426315000000      1.67663211000000     -1.95984936000000
  H   0.08595808000000     -0.36633856000000     -3.15167483000000
