21
Coordinates from ORCA-job 6_4_orca
  Sc  1.39971006000000     -1.00775614000000     -1.77207597000000
  C   0.41255722000000     -0.58937871000000      0.25364355000000
  N   -0.46445583000000     -1.35263607000000      0.92910872000000
  C   -0.78481400000000     -0.77793970000000      2.13139534000000
  C   -0.12490670000000      0.40271387000000      2.17686055000000
  N   0.58009084000000      0.50938699000000      1.00348019000000
  C   1.41441600000000      1.63596194000000      0.63044094000000
  H   1.44377407000000      2.34926758000000      1.45063324000000
  H   1.01487895000000      2.14113600000000     -0.26668268000000
  H   2.43977273000000      1.29873674000000      0.44705623000000
  C   -0.97084034000000     -2.65623959000000      0.54634917000000
  H   -0.61848361000000     -2.92756254000000     -0.44519647000000
  H   -2.06079722000000     -2.65092570000000      0.50952716000000
  H   -0.64864503000000     -3.41719111000000      1.25686461000000
  H   -1.43715841000000     -1.24084505000000      2.85996973000000
  H   -0.10192685000000      1.16108161000000      2.94716436000000
  C   -0.28036864000000      1.68010281000000     -2.87319360000000
  H   -0.88793339000000      1.60686717000000     -3.80696569000000
  H   0.43676929000000      2.49153332000000     -2.92105669000000
  H   -0.87038165000000      1.66213958000000     -1.95153482000000
  H   0.11096967000000     -0.31517116000000     -3.10604824000000
