21
Coordinates from ORCA-job 6_5_orca
  Sc  1.33962046000000     -0.92566132000000     -1.83750217000000
  C   0.41005130000000     -0.59679334000000      0.25117535000000
  N   -0.45297653000000     -1.35895979000000      0.94456084000000
  C   -0.79054190000000     -0.76660792000000      2.13243870000000
  C   -0.12545193000000      0.41379801000000      2.17432068000000
  N   0.59108012000000      0.50133267000000      1.01072285000000
  C   1.41102210000000      1.62931300000000      0.62611649000000
  H   1.44081035000000      2.33655049000000      1.44933255000000
  H   1.01926209000000      2.13746423000000     -0.26278947000000
  H   2.43036231000000      1.29504505000000      0.43939176000000
  C   -0.97102735000000     -2.65574589000000      0.54583788000000
  H   -0.61816187000000     -2.92761064000000     -0.44512813000000
  H   -2.05764278000000     -2.64930802000000      0.50609975000000
  H   -0.64989092000000     -3.41225151000000      1.25578728000000
  H   -1.44071322000000     -1.23847567000000      2.85392485000000
  H   -0.10287397000000      1.16394023000000      2.94281230000000
  C   -0.27391680000000      1.60410166000000     -2.86623150000000
  H   -0.90215963000000      1.58520949000000     -3.80694473000000
  H   0.46876559000000      2.41730743000000     -2.92056157000000
  H   -0.87828414000000      1.64015041000000     -1.95549713000000
  H   0.15663083000000     -0.18787732000000     -3.03939707000000
