21
Coordinates from ORCA-job 6_6_orca
  Sc  1.26556118000000     -0.81351826000000     -1.91286499000000
  C   0.40699760000000     -0.60166546000000      0.24777953000000
  N   -0.44236023000000     -1.36365798000000      0.95504086000000
  C   -0.79168554000000     -0.75298222000000      2.13739427000000
  C   -0.13145332000000      0.41297720000000      2.17319426000000
  N   0.59799702000000      0.48760790000000      1.01056393000000
  C   1.40969172000000      1.62422970000000      0.62745267000000
  H   1.43652095000000      2.32638938000000      1.44627249000000
  H   1.02124410000000      2.13122525000000     -0.25986602000000
  H   2.42467036000000      1.29228342000000      0.43378709000000
  C   -0.96912284000000     -2.65247377000000      0.54833560000000
  H   -0.61626771000000     -2.92561559000000     -0.44641758000000
  H   -2.05570091000000     -2.64573854000000      0.50441450000000
  H   -0.64924427000000     -3.41113898000000      1.25348084000000
  H   -1.44382002000000     -1.23420085000000      2.84850572000000
  H   -0.10257667000000      1.17076591000000      2.94210210000000
  C   -0.25417335000000      1.51380446000000     -2.86686981000000
  H   -0.89748180000000      1.55587616000000     -3.78452246000000
  H   0.49490249000000      2.32126583000000     -2.91864577000000
  H   -0.88487513000000      1.61986464000000     -1.96642058000000
  H   0.18712502000000     -0.04836033000000     -2.97565405000000
