21
Coordinates from ORCA-job 6_9_orca
  Sc  1.23643552000000     -0.47281101000000     -1.90274083000000
  C   0.37921319000000     -0.60221901000000      0.22283076000000
  N   -0.45660314000000     -1.36695387000000      0.93944918000000
  C   -0.78220767000000     -0.77108472000000      2.13193710000000
  C   -0.13074184000000      0.40750877000000      2.16677310000000
  N   0.57925891000000      0.48335728000000      0.99957796000000
  C   1.42001009000000      1.60140743000000      0.62271226000000
  H   1.46313047000000      2.32256848000000      1.44129353000000
  H   0.99830462000000      2.10893286000000     -0.23978624000000
  H   2.44711349000000      1.28279872000000      0.40571416000000
  C   -0.97043619000000     -2.66108654000000      0.55349184000000
  H   -0.58704173000000     -2.91939141000000     -0.42650254000000
  H   -2.05479987000000     -2.62050669000000      0.50466447000000
  H   -0.66001218000000     -3.43426486000000      1.25691135000000
  H   -1.46551150000000     -1.20454391000000      2.84787031000000
  H   -0.11581066000000      1.19217242000000      2.91290539000000
  C   -0.15225209000000      1.28410120000000     -2.77899386000000
  H   -0.77171061000000      1.43105995000000     -3.62334209000000
  H   0.46642770000000      2.20397307000000     -2.87899580000000
  H   -0.85909234000000      1.58974413000000     -2.00200489000000
  H   0.02561287000000      0.15883631000000     -3.15644779000000
