21
Coordinates from ORCA-job 2_1_orca
  C   -1.75415732000000      0.21380448000000     -0.30842630000000
  C   -1.80593484000000     -0.78108952000000     -1.31929734000000
  C   -1.25914616000000     -2.01944688000000     -1.13303508000000
  C   -0.53354343000000     -2.31365075000000      0.00197345000000
  C   -1.14315580000000     -0.07183149000000      1.02718174000000
  C   -0.42099079000000     -1.36905142000000      1.06424400000000
  H   -2.22402140000000      1.11250457000000     -0.48319634000000
  H   -2.37657211000000     -0.54476701000000     -2.19804253000000
  H   -1.42112966000000     -2.77903393000000     -1.85804241000000
  H   0.14041533000000     -1.62243228000000      1.89649097000000
  H   -0.10147580000000     -3.27019431000000      0.15437713000000
  Pd  1.40754652000000      1.19210449000000      0.07654485000000
  O   2.77517720000000      0.98935668000000     -1.56918427000000
  O   2.59184441000000     -0.47307870000000      0.00797249000000
  O   0.36127478000000      2.89482230000000     -0.08591707000000
  C   0.14661418000000      2.90551561000000      1.35798429000000
  O   0.57086070000000      2.20090524000000      1.97338148000000
  H   -1.47901636000000      0.76541575000000      2.39316793000000
  C   3.16991721000000     -0.09994592000000     -1.05160716000000
  H   3.92569219000000     -0.72364246000000     -1.54025673000000
  H   -0.57118151000000      3.79101567000000      1.59345756000000
