21
Coordinates from ORCA-job 2_4_orca
  C   -1.70256769000000      0.20363722000000     -0.29412475000000
  C   -1.88928809000000     -0.81254640000000     -1.28109390000000
  C   -1.40545742000000     -2.09602443000000     -1.09341894000000
  C   -0.61790730000000     -2.33282634000000      0.01940171000000
  C   -1.07421077000000      0.02248565000000      1.06373016000000
  C   -0.42198191000000     -1.32049411000000      1.01471546000000
  H   -2.11816440000000      1.17391475000000     -0.56096002000000
  H   -2.49955232000000     -0.58805184000000     -2.16351333000000
  H   -1.67108085000000     -2.88956648000000     -1.77528531000000
  H   0.23361798000000     -1.61488496000000      1.83207794000000
  H   -0.21489694000000     -3.33819779000000      0.18245332000000
  Pd  1.41495060000000      1.20341709000000      0.13264812000000
  O   2.91873464000000      1.08783465000000     -1.51481086000000
  O   2.55882685000000     -0.47354267000000     -0.05999646000000
  O   0.38669482000000      2.86539208000000     -0.04238744000000
  C   0.09500816000000      2.93786863000000      1.29213547000000
  O   0.55200615000000      2.13471641000000      2.07139602000000
  H   -1.28604723000000      0.68297962000000      2.12314674000000
  C   3.27412806000000      0.00222840000000     -1.00575264000000
  H   4.05691998000000     -0.62530122000000     -1.50908567000000
  H   -0.59352413000000      3.77270736000000      1.56964406000000
