21
Coordinates from ORCA-job 2_5_orca
  C   -1.72403275000000      0.20204037000000     -0.29609170000000
  C   -1.84621281000000     -0.79238405000000     -1.29794879000000
  C   -1.32891935000000     -2.05678118000000     -1.11303526000000
  C   -0.57464053000000     -2.31839054000000      0.01356166000000
  C   -1.10914493000000     -0.03159113000000      1.03733820000000
  C   -0.42677145000000     -1.34096027000000      1.03477232000000
  H   -2.17520629000000      1.14512948000000     -0.52186302000000
  H   -2.43608032000000     -0.56585185000000     -2.18235780000000
  H   -1.54135647000000     -2.83276473000000     -1.81900306000000
  H   0.18721612000000     -1.62018051000000      1.86818990000000
  H   -0.15536846000000     -3.30460852000000      0.16769855000000
  Pd  1.41069968000000      1.19723028000000      0.09811816000000
  O   2.84540985000000      1.03525153000000     -1.54073170000000
  O   2.57727520000000     -0.47419638000000     -0.02355666000000
  O   0.37265414000000      2.87868823000000     -0.04710295000000
  C   0.10886661000000      2.94519218000000      1.29130949000000
  O   0.57357426000000      2.14997805000000      2.04096478000000
  H   -1.38657683000000      0.72637729000000      2.26438603000000
  C   3.21718724000000     -0.04875335000000     -1.03174771000000
  H   3.98920866000000     -0.67629046000000     -1.52475933000000
  H   -0.58011349000000      3.77959567000000      1.58226666000000
