21
Coordinates from ORCA-job 2_6_orca
  C   -1.70536457000000      0.20526087000000     -0.28765603000000
  C   -1.88065463000000     -0.80012074000000     -1.27719177000000
  C   -1.39361965000000     -2.08419012000000     -1.09142186000000
  C   -0.61004003000000     -2.32362095000000      0.02675251000000
  C   -1.07733982000000     -0.01650194000000      1.02435288000000
  C   -0.42482811000000     -1.32047431000000      1.02165633000000
  H   -2.12516291000000      1.16457487000000     -0.55511543000000
  H   -2.48676508000000     -0.58405756000000     -2.16246928000000
  H   -1.64955042000000     -2.87886091000000     -1.78061797000000
  H   0.22412108000000     -1.61508642000000      1.83450801000000
  H   -0.20611275000000     -3.32717500000000      0.18071244000000
  Pd  1.41440013000000      1.19088870000000      0.10274386000000
  O   2.91095969000000      1.08404105000000     -1.50886882000000
  O   2.57248338000000     -0.47293774000000     -0.05134539000000
  O   0.38082363000000      2.86505399000000     -0.01576156000000
  C   0.10538447000000      2.93537324000000      1.28690933000000
  O   0.54596791000000      2.15491591000000      2.05881583000000
  H   -1.30220377000000      0.69166280000000      2.14582913000000
  C   3.25153793000000     -0.01552466000000     -1.01964787000000
  H   4.04365386000000     -0.62842375000000     -1.50305390000000
  H   -0.59107382000000      3.77167048000000      1.57181874000000
