21
Coordinates from ORCA-job 2_7_orca
  C   -1.68797244000000      0.20325328000000     -0.27636277000000
  C   -1.90606207000000     -0.79858307000000     -1.25502358000000
  C   -1.44306296000000     -2.10096861000000     -1.06961583000000
  C   -0.63761344000000     -2.32045263000000      0.04328735000000
  C   -1.05209285000000     -0.02489350000000      0.99095489000000
  C   -0.42748648000000     -1.30312337000000      1.00881147000000
  H   -2.08695049000000      1.17904929000000     -0.58008401000000
  H   -2.52349063000000     -0.59722734000000     -2.14438798000000
  H   -1.73153533000000     -2.91226223000000     -1.74953636000000
  H   0.25187102000000     -1.61077544000000      1.80949027000000
  H   -0.24479860000000     -3.34085616000000      0.19138952000000
  Pd  1.41667102000000      1.17794308000000      0.08746647000000
  O   2.96418271000000      1.12376744000000     -1.47674475000000
  O   2.57652911000000     -0.47177956000000     -0.07108262000000
  O   0.38599178000000      2.85027480000000      0.03067712000000
  C   0.08702815000000      2.96043723000000      1.24881496000000
  O   0.53633831000000      2.14135542000000      2.09756310000000
  H   -1.23636219000000      0.66331462000000      2.05001627000000
  C   3.26732264000000      0.00560034000000     -1.01674659000000
  H   4.08407849000000     -0.58881245000000     -1.48065329000000
  H   -0.59660394000000      3.76128988000000      1.56303732000000
