21
Coordinates from ORCA-job 2_8_orca
  C   -1.66180344000000      0.20713818000000     -0.27709720000000
  C   -1.95944924000000     -0.80959175000000     -1.22234123000000
  C   -1.54263549000000     -2.13677450000000     -1.02983807000000
  C   -0.69347227000000     -2.32945709000000      0.06414921000000
  C   -1.00219363000000     -0.01044091000000      0.95676637000000
  C   -0.41830364000000     -1.28802437000000      0.98455086000000
  H   -2.00850390000000      1.20393974000000     -0.62541724000000
  H   -2.59678738000000     -0.62267246000000     -2.10754936000000
  H   -1.89408501000000     -2.97408540000000     -1.68312722000000
  H   0.30382437000000     -1.59888109000000      1.75736623000000
  H   -0.32291800000000     -3.36642133000000      0.21304805000000
  Pd  1.41870808000000      1.15898823000000      0.07980708000000
  O   3.06503142000000      1.20127954000000     -1.41971740000000
  O   2.57257806000000     -0.47115184000000     -0.11055369000000
  O   0.40034570000000      2.82577336000000      0.07630695000000
  C   0.06930721000000      2.96321797000000      1.24123748000000
  O   0.50184446000000      2.14086891000000      2.14093036000000
  H   -1.10582324000000      0.61191405000000      1.86719790000000
  C   3.31715101000000      0.05483587000000     -1.00762386000000
  H   4.16505527000000     -0.51402951000000     -1.44175625000000
  H   -0.61307552000000      3.74932119000000      1.54463675000000
