21
Coordinates from ORCA-job 2_9_orca
  C   -1.64792915000000      0.20928286000000     -0.29774438000000
  C   -2.00440192000000     -0.81753568000000     -1.19135422000000
  C   -1.62491489000000     -2.15471365000000     -0.98578915000000
  C   -0.74333770000000     -2.33738024000000      0.08301999000000
  C   -0.95600804000000     -0.04433986000000      0.86808473000000
  C   -0.40592039000000     -1.29961751000000      0.96074256000000
  H   -1.94501648000000      1.21707817000000     -0.65069520000000
  H   -2.64847176000000     -0.63713355000000     -2.06785037000000
  H   -2.01703007000000     -3.00622011000000     -1.61602190000000
  H   0.33816968000000     -1.58336941000000      1.71785868000000
  H   -0.38437410000000     -3.37285301000000      0.23425411000000
  Pd  1.41840186000000      1.13262378000000      0.05455535000000
  O   3.14246362000000      1.26181407000000     -1.35808788000000
  O   2.58281586000000     -0.46346391000000     -0.15222606000000
  O   0.42212163000000      2.79908121000000      0.08199553000000
  C   0.04205324000000      2.97128660000000      1.27722822000000
  O   0.47756858000000      2.14121554000000      2.18016589000000
  H   -0.99431400000000      0.59215100000000      1.73672711000000
  C   3.34426255000000      0.09253620000000     -1.00045000000000
  H   4.22646198000000     -0.45224913000000     -1.40219424000000
  H   -0.62983599000000      3.74613710000000      1.52701244000000
