21
Coordinates from ORCA-job reaction-5-ieip_optts_Compound_2_IRC_F
  Sc  0.54615833910356     -0.18627532495211     -2.01740313686659
  C   0.23620713838478     -0.14982876638864      0.30966225698922
  N   -0.46575480423702     -1.12922669516899      0.91353322257283
  C   -0.49675569621550     -0.95597586660422      2.26802879845041
  C   0.20649511413969      0.16764193938836      2.52790078453153
  N   0.64157243020956      0.64404964236231      1.32146311321659
  C   1.46750900131237      1.83184866260972      1.20982842232374
  H   1.06884556663284      2.61729755216318      1.84831897461797
  H   1.46307339397126      2.19970193628734      0.18768778057247
  H   2.49075858063713      1.61892932786489      1.51509622025266
  C   -1.10699972590507     -2.25620874960844      0.25638716443105
  H   -1.13178082552922     -2.11065174639287     -0.82120504991812
  H   -2.13084481482379     -2.35412126444795      0.60780400456898
  H   -0.56260834285916     -3.17468344429317      0.46589825815066
  H   -1.01411922177271     -1.62820163468167      2.93167226353160
  H   0.41818420310769      0.65532348401068      3.46482780071252
  C   -0.18076514224597      1.26321227046600     -3.35895698142730
  H   -0.28320063842262      0.71840684143142     -4.31153274775942
  H   0.38794630506897      2.17369021262129     -3.56594089099569
  H   -1.19811237501396      1.56420674960007     -3.07995622142512
  H   -0.30000833857976     -1.60928142741447     -2.64484266188332
