38
Coordinates from ORCA-job 3_3_orca
  Pd  0.52844148000000      0.34516904000000     -0.20318560000000
  O   2.02017801000000      1.26261608000000      0.67003080000000
  C   1.57606862000000      2.59089733000000      0.28657387000000
  O   0.69153489000000      2.90196972000000     -0.21738437000000
  C   2.75014372000000      3.68581747000000      0.61863724000000
  H   2.25175763000000      4.56933575000000      1.05189164000000
  H   3.17608354000000      4.02984321000000     -0.33305235000000
  H   3.56842587000000      3.38711527000000      1.27033711000000
  N   -1.42290913000000     -0.75961167000000     -1.13568992000000
  C   -1.18752118000000     -1.83157454000000     -2.05396947000000
  H   -0.72305717000000     -1.40831020000000     -2.92137121000000
  H   -2.17051435000000     -2.19933112000000     -2.28465103000000
  H   -0.55710349000000     -2.58971304000000     -1.61045547000000
  C   -2.13606310000000      0.40295164000000     -1.67929992000000
  H   -2.24091132000000      1.20660232000000     -0.97606554000000
  H   -3.08540431000000     -0.00798995000000     -1.97364372000000
  H   -1.55590259000000      0.68289510000000     -2.54281647000000
  C   -1.69536449000000     -0.99615120000000      1.45453177000000
  C   -1.27251972000000     -2.14015751000000      2.30775899000000
  C   -0.98150206000000     -1.95725767000000      3.63595973000000
  C   -1.18456564000000     -0.71303006000000      4.18201662000000
  C   -1.54271183000000      0.44728829000000      3.42568354000000
  C   -1.73143556000000      0.17248894000000      2.16583236000000
  H   -0.92311151000000     -0.56243002000000      5.23872478000000
  H   -1.69952641000000      1.32536446000000      3.89902305000000
  H   -1.26991076000000     -3.12839588000000      1.88146882000000
  H   -0.88441197000000     -2.82941382000000      4.25464554000000
  H   -2.25862671000000      3.20720258000000      1.44277291000000
  C   -2.19258514000000     -1.32065312000000      0.13997818000000
  H   -3.19189219000000     -0.86847656000000      0.10293736000000
  H   -2.34942345000000     -2.37326287000000     -0.01441242000000
  O   2.11626513000000     -0.31102468000000     -1.37033265000000
  C   2.15857257000000     -0.52138648000000     -2.69882744000000
  O   1.36132345000000     -0.49018936000000     -3.65176778000000
  C   3.77776922000000     -0.72776890000000     -2.98365318000000
  H   3.86824598000000     -1.81505066000000     -3.28396816000000
  H   4.39751445000000     -0.50621328000000     -2.19818476000000
  H   4.01739895000000     -0.16295841000000     -3.89843834000000
