38
Coordinates from ORCA-job 3_4_orca
  Pd  0.47350931000000      0.25888037000000     -0.28880323000000
  O   2.00241462000000      1.35683380000000      0.68135718000000
  C   1.70051029000000      2.60211221000000      0.33159206000000
  O   0.68094742000000      2.84879051000000     -0.20845476000000
  C   2.75175744000000      3.70189671000000      0.61718381000000
  H   2.25968584000000      4.57731077000000      1.05138556000000
  H   3.17468319000000      4.03109373000000     -0.33581375000000
  H   3.55959832000000      3.38305933000000      1.26657317000000
  N   -1.37437898000000     -0.74999161000000     -1.02529450000000
  C   -1.19753993000000     -1.81355231000000     -2.00976670000000
  H   -0.76224999000000     -1.46338570000000     -2.93194416000000
  H   -2.17289181000000     -2.18922032000000     -2.32635682000000
  H   -0.54831192000000     -2.56929610000000     -1.58716448000000
  C   -2.10538999000000      0.34676592000000     -1.66880319000000
  H   -2.23728498000000      1.19056821000000     -1.01403178000000
  H   -3.08752527000000      0.00068337000000     -1.99092598000000
  H   -1.57172817000000      0.68012630000000     -2.54894954000000
  C   -1.61607770000000     -1.02171741000000      1.44357669000000
  C   -1.23078964000000     -2.11885753000000      2.28063498000000
  C   -1.04525199000000     -1.96791973000000      3.63422959000000
  C   -1.12785018000000     -0.71551800000000      4.18666238000000
  C   -1.55256786000000      0.37383009000000      3.40522846000000
  C   -1.79005066000000      0.18439403000000      2.08561325000000
  H   -0.91248392000000     -0.58358806000000      5.24555859000000
  H   -1.65839495000000      1.29719140000000      3.90256960000000
  H   -1.32261324000000     -3.13462502000000      1.93666517000000
  H   -0.92445079000000     -2.82736576000000      4.27943540000000
  H   -2.23723069000000      3.31283553000000      1.42456189000000
  C   -2.20811974000000     -1.30063291000000      0.12444089000000
  H   -3.22788517000000     -0.88501843000000      0.13258076000000
  H   -2.41498784000000     -2.36354601000000      0.01231545000000
  O   2.03996939000000     -0.27281220000000     -1.42512818000000
  C   2.24211057000000     -0.49260442000000     -2.68967123000000
  O   1.40796943000000     -0.53076356000000     -3.57319549000000
  C   3.73524277000000     -0.73494759000000     -3.02797268000000
  H   3.89642655000000     -1.79571184000000     -3.27692931000000
  H   4.38093180000000     -0.48480061000000     -2.22230156000000
  H   4.02114122000000     -0.13143403000000     -3.89146804000000
