38
Coordinates from ORCA-job 3_7_orca
  Pd  0.64483178000000      0.44472438000000     -0.06569450000000
  O   1.90776557000000      1.17675967000000      0.57534581000000
  C   1.39907391000000      2.60975207000000      0.19029831000000
  O   0.74374839000000      2.96717963000000     -0.17962111000000
  C   2.72228647000000      3.61453831000000      0.62697850000000
  H   2.24527782000000      4.51006508000000      1.04375343000000
  H   3.16271147000000      3.98463633000000     -0.31329453000000
  H   3.57196601000000      3.37041601000000      1.27038139000000
  N   -1.44112464000000     -0.73421703000000     -1.12902374000000
  C   -1.17953780000000     -1.85324434000000     -2.08903730000000
  H   -0.59559532000000     -1.34241027000000     -2.89128774000000
  H   -2.18682832000000     -2.30377343000000     -2.20275108000000
  H   -0.59836739000000     -2.66782214000000     -1.61466348000000
  C   -2.15931308000000      0.43084417000000     -1.72148829000000
  H   -2.24202480000000      1.22999061000000     -0.93677256000000
  H   -3.12364076000000     -0.02000341000000     -1.99564432000000
  H   -1.50074844000000      0.67830774000000     -2.57291176000000
  C   -1.81305680000000     -1.04027028000000      1.53838882000000
  C   -1.45475553000000     -2.14960054000000      2.33024958000000
  C   -0.96811086000000     -1.94508053000000      3.63397916000000
  C   -1.23708521000000     -0.68945047000000      4.23370446000000
  C   -1.42184055000000      0.49137959000000      3.51632837000000
  C   -1.56077442000000      0.20673559000000      2.19989847000000
  H   -0.95536608000000     -0.52578322000000      5.22812018000000
  H   -1.66999747000000      1.48795953000000      3.91320909000000
  H   -1.25685143000000     -3.11247757000000      1.75586120000000
  H   -0.84101020000000     -2.83466001000000      4.22233581000000
  H   -2.18128342000000      2.92990109000000      1.44066689000000
  C   -2.17656234000000     -1.27063108000000      0.06067804000000
  H   -3.12449503000000     -0.77116972000000      0.01746514000000
  H   -2.24044857000000     -2.37140920000000     -0.07433746000000
  O   2.13774051000000     -0.37101420000000     -1.39137727000000
  C   2.14790726000000     -0.54974481000000     -2.66165750000000
  O   1.29560150000000     -0.52366892000000     -3.65133740000000
  C   3.72306946000000     -0.69644608000000     -2.97282396000000
  H   3.83651462000000     -1.74175569000000     -3.29764067000000
  H   4.43140283000000     -0.46346987000000     -2.13080760000000
  H   3.96519049000000     -0.16545685000000     -3.91084537000000
