21
Coordinates from ORCA-job 4_1_orca
  C   -1.55172672000000      0.17123083000000     -0.58054556000000
  C   -2.08007971000000     -0.89350708000000     -1.26520565000000
  C   -1.74292025000000     -2.19684142000000     -0.96209459000000
  C   -0.80724791000000     -2.44890750000000      0.04146357000000
  C   -0.57969225000000     -0.03949699000000      0.47640907000000
  C   -0.25657337000000     -1.42329632000000      0.78336453000000
  H   -1.82891532000000      1.17071529000000     -0.87320934000000
  H   -2.81200472000000     -0.69129407000000     -2.04450423000000
  H   -2.21270405000000     -2.99569775000000     -1.45348230000000
  H   0.46714456000000     -1.64324877000000      1.54336623000000
  H   -0.51793733000000     -3.46205237000000      0.26851998000000
  Pd  1.37748859000000      1.06414036000000     -0.05268647000000
  O   3.28264622000000      1.34167945000000     -1.22388691000000
  O   2.61583081000000     -0.52903077000000     -0.28477782000000
  O   0.39710776000000      2.84193498000000      0.04840112000000
  C   -0.00512646000000      2.86942429000000      1.43532986000000
  O   0.28099334000000      2.15616722000000      2.19940792000000
  H   -1.14288741000000      1.27590391000000      2.75301347000000
  C   3.49051369000000      0.09913387000000     -0.98289388000000
  H   4.35735381000000     -0.41060156000000     -1.38854222000000
  H   -0.73186232000000      3.74070361000000      1.55979168000000
