21
Coordinates from ORCA-job 4_4_orca
  C   -1.55833274000000      0.16793436000000     -0.52967134000000
  C   -2.08952391000000     -0.89613821000000     -1.26230537000000
  C   -1.72218986000000     -2.19750960000000     -0.96423906000000
  C   -0.82059844000000     -2.44947966000000      0.05736686000000
  C   -0.49808636000000      0.00948655000000      0.46076991000000
  C   -0.27599663000000     -1.38955985000000      0.78599103000000
  H   -1.81934816000000      1.18546953000000     -0.82361218000000
  H   -2.79035602000000     -0.68474280000000     -2.06215761000000
  H   -2.17577150000000     -3.00845849000000     -1.49444012000000
  H   0.45130891000000     -1.61319699000000      1.56685674000000
  H   -0.49414263000000     -3.46626339000000      0.26092307000000
  Pd  1.26578664000000      0.99586593000000      0.01528090000000
  O   3.28115214000000      1.32208734000000     -1.24548819000000
  O   2.57758304000000     -0.51592685000000     -0.28310274000000
  O   0.39401799000000      2.81909056000000      0.09907330000000
  C   -0.03384139000000      2.92356844000000      1.32593285000000
  O   0.20475385000000      2.05354461000000      2.31498691000000
  H   -0.99430404000000      1.28620682000000      2.59437169000000
  C   3.46014536000000      0.12701757000000     -0.96298143000000
  H   4.33333481000000     -0.41926794000000     -1.39957936000000
  H   -0.69656530000000      3.74050329000000      1.53841164000000
