21
Coordinates from ORCA-job 4_5_orca
  C   -1.55197284000000      0.17050962000000     -0.55103267000000
  C   -2.08447601000000     -0.89441953000000     -1.26558277000000
  C   -1.72881365000000     -2.19477292000000     -0.96189195000000
  C   -0.81238037000000     -2.44848734000000      0.04817750000000
  C   -0.54541132000000     -0.02095130000000      0.46961256000000
  C   -0.26811432000000     -1.40184609000000      0.78494080000000
  H   -1.82699915000000      1.17778146000000     -0.84808988000000
  H   -2.79934433000000     -0.68795862000000     -2.05356629000000
  H   -2.19253928000000     -3.00277349000000     -1.47630017000000
  H   0.45862668000000     -1.62953165000000      1.55698710000000
  H   -0.50473219000000     -3.46362102000000      0.26418777000000
  Pd  1.32500600000000      1.03411385000000     -0.02204387000000
  O   3.27982380000000      1.32507873000000     -1.23391825000000
  O   2.60011617000000     -0.52213411000000     -0.28347036000000
  O   0.39112878000000      2.82957834000000      0.09170994000000
  C   -0.01973822000000      2.91004070000000      1.35030962000000
  O   0.25321691000000      2.09627019000000      2.26618161000000
  H   -1.07514075000000      1.27766102000000      2.67652137000000
  C   3.46940978000000      0.11664384000000     -0.97354957000000
  H   4.34483830000000     -0.41699188000000     -1.39456624000000
  H   -0.71324653000000      3.73939899000000      1.55023769000000
