39
Coordinates from ORCA-job 2_2_orca
  Ir  0.43936774000000     -0.65290602000000      1.02937017000000
  C   -0.02694710000000     -2.61300813000000      1.90952105000000
  C   1.12451414000000     -2.06990244000000      2.56989351000000
  C   1.62012793000000     -2.35627998000000      0.33203083000000
  C   0.31830817000000     -2.82447806000000      0.54229346000000
  C   2.12792598000000     -1.89739482000000      1.61429195000000
  N   -0.91395779000000      0.04736260000000     -0.39477699000000
  C   -2.35776221000000      0.16950278000000      0.00957770000000
  C   -2.82527923000000      1.61443260000000      0.07250085000000
  H   -3.85064280000000      1.64356902000000      0.45226979000000
  H   -2.81195881000000      2.09294692000000     -0.90302498000000
  H   -2.22885410000000      2.20593113000000      0.74851388000000
  C   -3.27326526000000     -0.66271831000000     -0.88668898000000
  H   -2.41170681000000     -0.23936915000000      1.01022284000000
  H   -4.27183176000000     -0.68941760000000     -0.44247252000000
  H   -3.39267342000000     -0.24078938000000     -1.88407798000000
  H   -2.93008247000000     -1.68547422000000     -0.98258237000000
  C   -0.61882785000000      0.29119138000000     -1.62299227000000
  C   0.68023423000000      0.19753899000000     -2.23878387000000
  H   -1.43319048000000      0.55597620000000     -2.28640537000000
  C   1.98547474000000      0.32733783000000     -1.69674270000000
  C   2.95329407000000      0.12551076000000     -2.69642018000000
  S   0.74932675000000     -0.03868030000000     -3.96475544000000
  C   2.44895705000000     -0.06743673000000     -3.95171952000000
  H   2.25344259000000      0.85475790000000     -0.79660547000000
  H   4.01576655000000      0.16082667000000     -2.48895830000000
  H   3.01195937000000     -0.23333878000000     -4.85391915000000
  H   -0.90794471000000     -3.00539075000000      2.39676810000000
  H   1.19408292000000     -1.90303701000000      3.63385250000000
  H   3.11540509000000     -1.50469027000000      1.76924911000000
  O   1.47569750000000      1.45230541000000      0.97139176000000
  O   -0.22642875000000      0.94331467000000      2.19320756000000
  C   0.62399114000000      1.83110849000000      1.80264786000000
  C   0.59267836000000      3.23659422000000      2.33807233000000
  H   0.76876516000000      3.94995776000000      1.52863983000000
  H   1.40547340000000      3.37711292000000      3.05478703000000
  H   -0.34433623000000      3.45346002000000      2.83015916000000
  H   2.21514163000000     -2.49604105000000     -0.54699670000000
  H   -0.29507610000000     -3.35061180000000     -0.17092185000000
