39
Coordinates from ORCA-job 2_3_orca
  Ir  0.44081589000000     -0.65094880000000      1.03194256000000
  C   -0.02701151000000     -2.61261621000000      1.90315880000000
  C   1.11958473000000     -2.07171886000000      2.57295800000000
  C   1.62760280000000     -2.35679506000000      0.34020683000000
  C   0.32262317000000     -2.82646891000000      0.54153599000000
  C   2.12579731000000     -1.89811175000000      1.61544548000000
  N   -0.91576728000000      0.04717597000000     -0.39636974000000
  C   -2.35841758000000      0.16863653000000      0.00851302000000
  C   -2.82695830000000      1.61299050000000      0.07671704000000
  H   -3.85089006000000      1.64037177000000      0.45448045000000
  H   -2.81327444000000      2.09374820000000     -0.89935021000000
  H   -2.22782997000000      2.20333177000000      0.75605947000000
  C   -3.27530086000000     -0.66115244000000     -0.88697134000000
  H   -2.41226777000000     -0.24429147000000      1.01132043000000
  H   -4.27195585000000     -0.68934560000000     -0.44351085000000
  H   -3.39460029000000     -0.23721003000000     -1.88442723000000
  H   -2.93117037000000     -1.68647343000000     -0.98687550000000
  C   -0.61767006000000      0.29140253000000     -1.62257002000000
  C   0.68983166000000      0.20012801000000     -2.23317712000000
  H   -1.43616149000000      0.55640658000000     -2.28762014000000
  C   1.97703481000000      0.33078888000000     -1.71313811000000
  C   2.95478693000000      0.12277675000000     -2.69196560000000
  S   0.74927840000000     -0.03868125000000     -3.96216678000000
  C   2.44601750000000     -0.06780875000000     -3.95083463000000
  H   2.24965681000000      0.85017991000000     -0.79178959000000
  H   4.01345952000000      0.16017118000000     -2.48824917000000
  H   3.01172978000000     -0.23206810000000     -4.85436243000000
  H   -0.91134049000000     -3.00622660000000      2.38942274000000
  H   1.18490626000000     -1.90086470000000      3.63382801000000
  H   3.11447611000000     -1.50240725000000      1.77970038000000
  O   1.47833243000000      1.44580135000000      0.96481387000000
  O   -0.22094923000000      0.94984100000000      2.19016140000000
  C   0.62010650000000      1.82928669000000      1.80372663000000
  C   0.59643169000000      3.23590442000000      2.33326637000000
  H   0.76885655000000      3.95115279000000      1.52695401000000
  H   1.40808363000000      3.37867756000000      3.05121166000000
  H   -0.34339381000000      3.45546123000000      2.82999565000000
  H   2.22328961000000     -2.49247014000000     -0.54441876000000
  H   -0.28881820000000     -3.34884508000000     -0.17710746000000
