39
Coordinates from ORCA-job 2_5_orca
  Ir  0.45926297000000     -0.65370496000000      1.04188169000000
  C   -0.04096886000000     -2.61364871000000      1.86059819000000
  C   1.07486378000000     -2.08158285000000      2.58504435000000
  C   1.68968481000000     -2.36092520000000      0.38701855000000
  C   0.36676355000000     -2.83779986000000      0.52822417000000
  C   2.12044074000000     -1.89340757000000      1.65558335000000
  N   -0.92593467000000      0.04769498000000     -0.40223194000000
  C   -2.36221102000000      0.15405675000000      0.00640175000000
  C   -2.83265174000000      1.59949345000000      0.11532027000000
  H   -3.85761326000000      1.61159544000000      0.47892948000000
  H   -2.82392623000000      2.10116667000000     -0.85824450000000
  H   -2.22449935000000      2.17419038000000      0.82070029000000
  C   -3.28793164000000     -0.65229015000000     -0.89610175000000
  H   -2.41651897000000     -0.28648243000000      1.01065617000000
  H   -4.27827976000000     -0.68917447000000     -0.45123453000000
  H   -3.41274947000000     -0.20445066000000     -1.88534347000000
  H   -2.94451695000000     -1.68584417000000     -1.02672380000000
  C   -0.61333107000000      0.29673467000000     -1.61910695000000
  C   0.69665743000000      0.22368084000000     -2.22450125000000
  H   -1.44641483000000      0.55621667000000     -2.29382363000000
  C   1.95180740000000      0.36676420000000     -1.77314805000000
  C   2.96006766000000      0.10845169000000     -2.69164727000000
  S   0.74608727000000     -0.03938306000000     -3.93778034000000
  C   2.43806208000000     -0.07775619000000     -3.94493370000000
  H   2.21187847000000      0.80101318000000     -0.77110486000000
  H   4.00467486000000      0.15183634000000     -2.47723226000000
  H   3.00381212000000     -0.22026877000000     -4.85207582000000
  H   -0.93956315000000     -3.01089945000000      2.31435864000000
  H   1.09736799000000     -1.88156447000000      3.64037840000000
  H   3.09817861000000     -1.48478777000000      1.87702467000000
  O   1.47629929000000      1.39593226000000      0.93050202000000
  O   -0.19590872000000      0.98603089000000      2.17539041000000
  C   0.62928287000000      1.83094527000000      1.78310020000000
  C   0.62081682000000      3.23361596000000      2.29789417000000
  H   0.77125810000000      3.96269838000000      1.50638053000000
  H   1.43220130000000      3.39097944000000      3.01454537000000
  H   -0.32074954000000      3.46799109000000      2.81959557000000
  H   2.29626608000000     -2.45647868000000     -0.50808908000000
  H   -0.22516619000000     -3.33118004000000     -0.23484499000000
