30
Coordinates from ORCA-job 8_0_orca
  Lu  0.36466704000000      0.33243862000000     -0.21346055000000
  C   0.43538466000000      1.00616103000000      2.47369114000000
  C   1.38292673000000     -0.01329506000000      2.22017108000000
  C   2.31095225000000      0.45213833000000      1.26817846000000
  C   1.95651873000000      1.79092220000000      0.97882922000000
  C   0.72198355000000      2.07797486000000      1.61145935000000
  H   2.50428700000000      2.45663678000000      0.32636305000000
  H   0.20687601000000      3.02783756000000      1.60832512000000
  H   -0.36377431000000      0.97864211000000      3.20227123000000
  H   1.41223825000000     -0.98213929000000      2.70180397000000
  H   3.19691831000000     -0.06606297000000      0.93039427000000
  C   1.02538724000000     -0.08213007000000     -2.58900299000000
  C   -0.29021788000000     -0.59806632000000     -2.56196964000000
  C   1.04521691000000     -1.95160159000000     -1.30431053000000
  C   1.84099440000000     -0.87888119000000     -1.75482616000000
  H   1.33726139000000      0.80551729000000     -3.12002442000000
  C   -0.22083014000000     -1.84935017000000     -1.92936842000000
  H   -1.12436950000000     -0.25565813000000     -3.15545078000000
  H   2.89505818000000     -0.74510909000000     -1.56164560000000
  H   1.37765300000000     -2.77036338000000     -0.67967149000000
  H   -1.04132549000000     -2.55316438000000     -1.86970389000000
  C   -2.66204421000000     -1.63947673000000      1.41393088000000
  H   -2.57765095000000     -1.44354990000000      2.47245761000000
  H   -2.98234383000000     -2.63294259000000      1.14151971000000
  H   -3.07338189000000     -0.84934645000000      0.80933383000000
  C   -1.92295995000000      1.73271817000000     -0.70178419000000
  H   -1.18117528000000     -1.33318620000000      0.89540322000000
  H   -1.45147128000000      2.51871084000000     -1.30228721000000
  H   -2.51104608000000      2.25967204000000      0.05247239000000
  H   -2.61174286000000      1.20495715000000     -1.36309877000000
