30
Coordinates from ORCA-job 8_1_orca
  Lu  0.23184379000000      0.36490402000000     -0.22124545000000
  C   0.44286635000000      0.98267630000000      2.44967981000000
  C   1.36356304000000     -0.02777018000000      2.22389907000000
  C   2.33243464000000      0.47540203000000      1.29675409000000
  C   1.95403661000000      1.79007471000000      0.95394784000000
  C   0.76599862000000      2.10247133000000      1.65132365000000
  H   2.50977320000000      2.45991692000000      0.32880639000000
  H   0.20867760000000      3.02390322000000      1.60287872000000
  H   -0.35938526000000      0.97277980000000      3.19873671000000
  H   1.40319193000000     -0.98637630000000      2.69299339000000
  H   3.19802555000000     -0.06715094000000      0.93394798000000
  C   1.03350790000000     -0.05671672000000     -2.57554767000000
  C   -0.26156323000000     -0.63478215000000     -2.62024805000000
  C   1.03646024000000     -1.97461550000000     -1.30999189000000
  C   1.84799039000000     -0.88344155000000     -1.77901424000000
  H   1.34098560000000      0.80737505000000     -3.12330841000000
  C   -0.22506605000000     -1.82622953000000     -1.87568432000000
  H   -1.12121521000000     -0.24924500000000     -3.15055073000000
  H   2.89708984000000     -0.74737676000000     -1.56260620000000
  H   1.37422044000000     -2.76840925000000     -0.67637229000000
  H   -1.03328049000000     -2.55513319000000     -1.85779347000000
  C   -2.47617605000000     -1.58722498000000      1.34994072000000
  H   -2.56226312000000     -1.45319471000000      2.47990897000000
  H   -2.93565390000000     -2.65675529000000      1.13441500000000
  H   -3.13997277000000     -0.86207803000000      0.84096724000000
  C   -1.85226343000000      1.70210117000000     -0.69696783000000
  H   -1.40593578000000     -1.31659515000000      0.92720948000000
  H   -1.45732017000000      2.52519932000000     -1.31077004000000
  H   -2.50801870000000      2.24797370000000      0.06042743000000
  H   -2.61195591000000      1.20181067000000     -1.36591414000000
