30
Coordinates from ORCA-job 8_2_orca
  Lu  0.12105473000000      0.39266078000000     -0.22452630000000
  C   0.42264256000000      0.98335902000000      2.44185864000000
  C   1.37409521000000     -0.03476173000000      2.20336650000000
  C   2.33890922000000      0.48135930000000      1.32037369000000
  C   1.95174643000000      1.78558092000000      0.94098953000000
  C   0.79731908000000      2.11243849000000      1.68127150000000
  H   2.51779540000000      2.46651387000000      0.32580257000000
  H   0.21111976000000      3.02247378000000      1.60101329000000
  H   -0.34969278000000      0.96569687000000      3.18603351000000
  H   1.39513606000000     -0.99863229000000      2.68995700000000
  H   3.19744427000000     -0.06562516000000      0.93826592000000
  C   1.03169901000000     -0.05029202000000     -2.56537063000000
  C   -0.23779432000000     -0.65675757000000     -2.65963310000000
  C   1.05344909000000     -1.96674545000000     -1.31786092000000
  C   1.84502450000000     -0.89958600000000     -1.78443386000000
  H   1.34733147000000      0.81682319000000     -3.12980991000000
  C   -0.24751867000000     -1.81046338000000     -1.84292811000000
  H   -1.11656541000000     -0.24633707000000     -3.14799815000000
  H   2.89870433000000     -0.74892030000000     -1.56369101000000
  H   1.37346126000000     -2.77345834000000     -0.66987527000000
  H   -1.02496575000000     -2.55153872000000     -1.84250252000000
  C   -2.36826387000000     -1.56367818000000      1.30933999000000
  H   -2.53774870000000     -1.46102926000000      2.45200432000000
  H   -2.86316662000000     -2.63256136000000      1.13122432000000
  H   -3.18587125000000     -0.88488634000000      0.87748198000000
  C   -1.81914636000000      1.67981972000000     -0.68956090000000
  H   -1.60303827000000     -1.31489838000000      0.96211786000000
  H   -1.46031546000000      2.53091476000000     -1.31912037000000
  H   -2.48581988000000      2.22491172000000      0.05387776000000
  H   -2.59533374000000      1.20573034000000     -1.35889365000000
