30
Coordinates from ORCA-job 8_9_orca
  Lu  0.12052565000000      0.33773185000000     -0.18513442000000
  C   0.40278250000000      0.96297365000000      2.39593615000000
  C   1.34706800000000     -0.05598618000000      2.15072035000000
  C   2.29794132000000      0.45189485000000      1.24030890000000
  C   1.94328073000000      1.77095414000000      0.93520054000000
  C   0.74561181000000      2.08691616000000      1.62404419000000
  H   2.51395836000000      2.45244966000000      0.31236740000000
  H   0.25461168000000      3.04476555000000      1.64442054000000
  H   -0.40367528000000      0.90865796000000      3.12350954000000
  H   1.38952598000000     -1.01379908000000      2.63619737000000
  H   3.20557128000000     -0.06169707000000      0.93684470000000
  C   1.02803233000000     -0.05933903000000     -2.55798224000000
  C   -0.27739369000000     -0.60344294000000     -2.58371756000000
  C   1.03716967000000     -1.91626103000000     -1.25059743000000
  C   1.82754767000000     -0.85156933000000     -1.73072084000000
  H   1.35897734000000      0.81487444000000     -3.11163887000000
  C   -0.24466785000000     -1.77999260000000     -1.81272948000000
  H   -1.09795511000000     -0.25860249000000     -3.19182785000000
  H   2.89384173000000     -0.73975186000000     -1.55569604000000
  H   1.39093011000000     -2.75450174000000     -0.66968262000000
  H   -1.05667372000000     -2.49230905000000     -1.69675673000000
  C   -2.56177714000000     -1.55649911000000      1.35147914000000
  H   -2.42058764000000     -1.44039715000000      2.42796398000000
  H   -2.58386849000000     -2.60271163000000      1.06008337000000
  H   -3.44832524000000     -0.99582993000000      0.99649076000000
  C   -1.78572998000000      1.70846220000000     -0.74335481000000
  H   -1.64320313000000     -1.19156492000000      0.86938002000000
  H   -1.41806866000000      2.55438730000000     -1.35056676000000
  H   -2.35458946000000      2.16390049000000      0.08716874000000
  H   -2.51609533000000      1.18950180000000     -1.38893719000000
