21
Coordinates from ORCA-job 5_3_orca
  C   -1.66413115000000      0.19423186000000     -0.39049339000000
  C   -1.90313484000000     -0.82743940000000     -1.31115438000000
  C   -1.43822262000000     -2.10303105000000     -1.08456775000000
  C   -0.63353631000000     -2.36561124000000      0.00716165000000
  C   -0.96665992000000     -0.08810964000000      0.82531793000000
  C   -0.36728222000000     -1.37112288000000      0.95429393000000
  H   -2.09443951000000      1.15735766000000     -0.60999397000000
  H   -2.53900377000000     -0.62190775000000     -2.16727183000000
  H   -1.72749572000000     -2.89919404000000     -1.74339139000000
  H   0.27152477000000     -1.62304072000000      1.79013407000000
  H   -0.25853547000000     -3.36447826000000      0.17600346000000
  Pd  1.39427654000000      1.14905237000000      0.02157628000000
  O   2.98280503000000      1.11858401000000     -1.46363416000000
  O   2.60428549000000     -0.49244948000000     -0.07554715000000
  O   0.38077609000000      2.86555664000000     -0.01351055000000
  C   0.07580426000000      2.96169455000000      1.32655174000000
  O   0.52531474000000      2.17969658000000      2.10904853000000
  H   -1.39097275000000      0.97459549000000      2.58694990000000
  C   3.28397505000000     -0.01542662000000     -1.03360097000000
  H   4.09142691000000     -0.60978191000000     -1.49289402000000
  H   -0.62592802000000      3.77806818000000      1.58414153000000
