21
Coordinates from ORCA-job 5_4_orca
  C   -1.66124147000000      0.19101411000000     -0.38015373000000
  C   -1.91715872000000     -0.83188448000000     -1.30465720000000
  C   -1.45546206000000     -2.11464676000000     -1.07919229000000
  C   -0.64677711000000     -2.36907394000000      0.01151668000000
  C   -0.96129800000000     -0.06161864000000      0.84777662000000
  C   -0.37197253000000     -1.35981418000000      0.94926646000000
  H   -2.07413333000000      1.16680465000000     -0.61168839000000
  H   -2.55169071000000     -0.62350745000000     -2.16170013000000
  H   -1.75743320000000     -2.91176985000000     -1.73131637000000
  H   0.27787728000000     -1.61611527000000      1.78211005000000
  H   -0.26978363000000     -3.37210095000000      0.18092229000000
  Pd  1.38182264000000      1.15099062000000      0.04874048000000
  O   2.99893463000000      1.13078165000000     -1.46253083000000
  O   2.58672434000000     -0.48702666000000     -0.09175686000000
  O   0.38484637000000      2.85244444000000      0.00042268000000
  C   0.07979711000000      2.95158589000000      1.30320069000000
  O   0.52282917000000      2.17576559000000      2.12461190000000
  H   -1.34865785000000      0.93685970000000      2.50049162000000
  C   3.30288233000000      0.00756427000000     -1.01798565000000
  H   4.10684686000000     -0.59766130000000     -1.49080065000000
  H   -0.62569817000000      3.77698048000000      1.57534400000000
