21
Coordinates from ORCA-job 5_5_orca
  C   -1.65547432000000      0.19036188000000     -0.36545734000000
  C   -1.92921322000000     -0.83009446000000     -1.29498400000000
  C   -1.47420736000000     -2.12278358000000     -1.07067828000000
  C   -0.65692424000000     -2.36712887000000      0.02021554000000
  C   -0.95660381000000     -0.05044049000000      0.85522749000000
  C   -0.37732540000000     -1.34580403000000      0.94734656000000
  H   -2.05492779000000      1.17304900000000     -0.61587863000000
  H   -2.56399870000000     -0.62596616000000     -2.15478958000000
  H   -1.78789828000000     -2.92579399000000     -1.72046852000000
  H   0.28375480000000     -1.61069720000000      1.77166051000000
  H   -0.28210972000000     -3.37786395000000      0.18603421000000
  Pd  1.37539691000000      1.14706974000000      0.05643707000000
  O   3.01724636000000      1.14658536000000     -1.45327543000000
  O   2.57938064000000     -0.48297226000000     -0.10383434000000
  O   0.38220035000000      2.83881711000000      0.04695764000000
  C   0.07766562000000      2.96085011000000      1.25319387000000
  O   0.52235904000000      2.16635122000000      2.14634155000000
  H   -1.30592557000000      0.90031687000000      2.41470670000000
  C   3.30942491000000      0.02165097000000     -1.01206249000000
  H   4.12105201000000     -0.58183726000000     -1.48186004000000
  H   -0.62265827000000      3.77064387000000      1.56628112000000
