21
Coordinates from ORCA-job 5_7_orca
  C   -1.64091841000000      0.20088011000000     -0.34983667000000
  C   -1.96796664000000     -0.82870349000000     -1.25308043000000
  C   -1.55339306000000     -2.14048386000000     -1.03023819000000
  C   -0.69734341000000     -2.36237427000000      0.04838423000000
  C   -0.92650286000000     -0.01826158000000      0.86810569000000
  C   -0.37681395000000     -1.32520753000000      0.94125328000000
  H   -1.98101753000000      1.18406843000000     -0.63622528000000
  H   -2.61215233000000     -0.63541239000000     -2.12080288000000
  H   -1.90327935000000     -2.96798148000000     -1.66728700000000
  H   0.30770130000000     -1.59082357000000      1.72544806000000
  H   -0.33641386000000     -3.38665587000000      0.20882418000000
  Pd  1.36573096000000      1.10399702000000      0.05285464000000
  O   3.08772479000000      1.21760036000000     -1.39466068000000
  O   2.56559489000000     -0.47517508000000     -0.14214618000000
  O   0.38973752000000      2.79225704000000      0.07960365000000
  C   0.06436070000000      2.94938611000000      1.31288000000000
  O   0.47188954000000      2.19253617000000      2.15332767000000
  H   -1.13722007000000      0.78602154000000      2.10990406000000
  C   3.32466799000000      0.05704979000000     -1.01244982000000
  H   4.17186357000000     -0.51509037000000     -1.43357976000000
  H   -0.61719516000000      3.75212434000000      1.52659423000000
