21
Coordinates from ORCA-job 5_8_orca
  C   -1.63361172000000      0.20337900000000     -0.35633000000000
  C   -1.98361144000000     -0.83133197000000     -1.24165194000000
  C   -1.58217667000000     -2.14520878000000     -1.01244961000000
  C   -0.71473211000000     -2.36579709000000      0.05389815000000
  C   -0.90593657000000     -0.00447245000000      0.86674357000000
  C   -0.37169791000000     -1.32654247000000      0.93377712000000
  H   -1.95515444000000      1.18923827000000     -0.64532275000000
  H   -2.62907557000000     -0.63840273000000     -2.10516982000000
  H   -1.94278237000000     -2.97566564000000     -1.64202076000000
  H   0.32057468000000     -1.58485274000000      1.71134714000000
  H   -0.35783636000000     -3.38625204000000      0.21839566000000
  Pd  1.35638335000000      1.08474961000000      0.04373294000000
  O   3.11185372000000      1.24198220000000     -1.36596953000000
  O   2.56294772000000     -0.48017659000000     -0.15937016000000
  O   0.38792941000000      2.77821055000000      0.08583270000000
  C   0.06071825000000      2.94216263000000      1.32280210000000
  O   0.44864144000000      2.19222392000000      2.18092390000000
  H   -1.07093436000000      0.75622946000000      2.00757963000000
  C   3.33166069000000      0.07213656000000     -1.01195765000000
  H   4.18920432000000     -0.49222220000000     -1.41582908000000
  H   -0.62496950000000      3.75820922000000      1.51666953000000
