21
Coordinates from ORCA-job 5_9_orca
  C   -1.62065501000000      0.20515469000000     -0.36871373000000
  C   -2.00189137000000     -0.83439245000000     -1.23066663000000
  C   -1.61477541000000     -2.14889798000000     -0.99050660000000
  C   -0.73497142000000     -2.37129780000000      0.05900165000000
  C   -0.87378801000000      0.00631351000000      0.85200316000000
  C   -0.36301098000000     -1.33069404000000      0.92217061000000
  H   -1.92762081000000      1.19649848000000     -0.65730245000000
  H   -2.64768523000000     -0.64115912000000     -2.08561524000000
  H   -1.98423781000000     -2.97799482000000     -1.60963301000000
  H   0.33849134000000     -1.57979780000000      1.69787577000000
  H   -0.38264928000000     -3.38407646000000      0.23029561000000
  Pd  1.34060263000000      1.05872857000000      0.02454380000000
  O   3.13618248000000      1.26999256000000     -1.32611265000000
  O   2.56236506000000     -0.49261779000000     -0.18297030000000
  O   0.38091396000000      2.76187991000000      0.09730976000000
  C   0.05424641000000      2.93360606000000      1.32700978000000
  O   0.41297883000000      2.18763570000000      2.22689179000000
  H   -0.98795993000000      0.73338937000000      1.89603840000000
  C   3.33923387000000      0.08721911000000     -1.00924902000000
  H   4.20678263000000     -0.46726667000000     -1.39527476000000
  H   -0.63747639000000      3.77232985000000      1.50752822000000
