21
Coordinates from ORCA-job 4_0_orca
  C   -1.72256906000000      0.18813178000000     -0.30465183000000
  C   -1.79997064000000     -0.75772663000000     -1.31841782000000
  C   -1.25865739000000     -2.01678926000000     -1.12823999000000
  C   -0.53000064000000     -2.29562557000000      0.01441366000000
  C   -1.11217751000000     -0.17212408000000      0.88243506000000
  C   -0.42745186000000     -1.36152358000000      1.03466619000000
  H   -2.24041159000000      1.11897485000000     -0.49871981000000
  H   -2.37848904000000     -0.56081839000000     -2.21013463000000
  H   -1.41930040000000     -2.78750359000000     -1.87330827000000
  H   0.15798466000000     -1.63097724000000      1.90405568000000
  H   -0.10622250000000     -3.28260491000000      0.14206507000000
  Pd  1.40541466000000      1.15868353000000     -0.01399947000000
  O   2.79943419000000      0.99146632000000     -1.54534214000000
  O   2.63668866000000     -0.48180736000000      0.02195919000000
  O   0.34590337000000      2.89252345000000      0.02052228000000
  C   0.10407365000000      3.00727182000000      1.23107940000000
  O   0.60366596000000      2.16796834000000      2.04771208000000
  H   -1.54081481000000      0.88147249000000      2.59637191000000
  C   3.12757650000000     -0.12270144000000     -1.07880120000000
  H   3.93032749000000     -0.71971975000000     -1.52910931000000
  H   -0.57499978000000      3.78341921000000      1.60545175000000
