21
Coordinates from ORCA-job 4_12_orca
  C   -1.74558973000000      0.18604326000000     -0.36546399000000
  C   -2.04801069000000     -0.83365267000000     -1.20461059000000
  C   -1.61904266000000     -2.11279664000000     -0.94549355000000
  C   -0.76096522000000     -2.38754545000000      0.08946948000000
  C   -0.98197718000000     -0.18528718000000      0.72760984000000
  C   -0.42706796000000     -1.42508078000000      0.98131100000000
  H   -1.98464978000000      1.23813643000000     -0.52049071000000
  H   -2.60871853000000     -0.57336004000000     -2.05303458000000
  H   -1.92842134000000     -2.90012781000000     -1.57120238000000
  H   0.26754510000000     -1.53557037000000      1.81481939000000
  H   -0.32734455000000     -3.32958247000000      0.26244432000000
  Pd  1.43617532000000      1.14951746000000      0.04059695000000
  O   3.06431310000000      1.25999803000000     -1.35591345000000
  O   2.59711433000000     -0.45878980000000     -0.12701686000000
  O   0.42233651000000      2.80354557000000      0.06574650000000
  C   0.09353646000000      2.93546532000000      1.29811707000000
  O   0.49467354000000      2.16410830000000      2.17454860000000
  H   -0.85691228000000      0.57850065000000      1.55173416000000
  C   3.32916110000000      0.09676507000000     -0.99404313000000
  H   4.18726603000000     -0.45335763000000     -1.38078971000000
  H   -0.59857440000000      3.77008304000000      1.50772809000000
