21
Coordinates from ORCA-job 4_13_orca
  C   -1.72439721000000      0.18794521000000     -0.35740285000000
  C   -2.06773940000000     -0.83946215000000     -1.21458477000000
  C   -1.63209531000000     -2.12213205000000     -0.94543354000000
  C   -0.76856655000000     -2.40839512000000      0.09308446000000
  C   -0.95425575000000     -0.13700185000000      0.75917577000000
  C   -0.42293275000000     -1.40498299000000      0.97606802000000
  H   -1.97982357000000      1.23565833000000     -0.52284324000000
  H   -2.64079523000000     -0.57738372000000     -2.07993941000000
  H   -1.95140418000000     -2.91379984000000     -1.56995959000000
  H   0.26648850000000     -1.53747763000000      1.80872612000000
  H   -0.32993594000000     -3.37067831000000      0.26278460000000
  Pd  1.42800467000000      1.14408210000000      0.04480630000000
  O   3.06775253000000      1.27006503000000     -1.34538885000000
  O   2.59213755000000     -0.46189774000000     -0.13672340000000
  O   0.42243007000000      2.80018035000000      0.07316909000000
  C   0.09011845000000      2.93302598000000      1.30739679000000
  O   0.48437969000000      2.17406051000000      2.17040632000000
  H   -0.82751509000000      0.58455053000000      1.53140182000000
  C   3.34529320000000      0.10663069000000     -0.98283831000000
  H   4.20095858000000     -0.44531560000000     -1.38130781000000
  H   -0.59397391000000      3.76774408000000      1.50467042000000
