21
Coordinates from ORCA-job 4_2_orca
  C   -1.72743620000000      0.19229741000000     -0.31200247000000
  C   -1.80807230000000     -0.77047359000000     -1.31644858000000
  C   -1.27145914000000     -2.02585880000000     -1.12992929000000
  C   -0.53946146000000     -2.30498980000000      0.01041058000000
  C   -1.11206080000000     -0.13661420000000      0.92275070000000
  C   -0.42341328000000     -1.36399964000000      1.03371519000000
  H   -2.22724202000000      1.12353504000000     -0.49877128000000
  H   -2.38906315000000     -0.56212306000000     -2.20807361000000
  H   -1.44076213000000     -2.79519193000000     -1.86340858000000
  H   0.16227237000000     -1.62608445000000      1.89832935000000
  H   -0.11491917000000     -3.28791667000000      0.14516967000000
  Pd  1.40227524000000      1.16735336000000      0.01942699000000
  O   2.80663616000000      0.99914726000000     -1.54971971000000
  O   2.61936337000000     -0.47857971000000      0.01338402000000
  O   0.35459420000000      2.89031198000000     -0.02322720000000
  C   0.11906340000000      2.96628178000000      1.29275483000000
  O   0.58655100000000      2.18940080000000      2.02314062000000
  H   -1.51451244000000      0.85685451000000      2.54176253000000
  C   3.15767335000000     -0.10934062000000     -1.06921544000000
  H   3.93876970000000     -0.71255144000000     -1.53034645000000
  H   -0.57768916000000      3.78685876000000      1.59992276000000
