21
Coordinates from ORCA-job 4_3_orca
  C   -1.72697449000000      0.19255882000000     -0.31046013000000
  C   -1.82057684000000     -0.78114035000000     -1.31277126000000
  C   -1.28817686000000     -2.03827620000000     -1.12834605000000
  C   -0.55211962000000     -2.31262339000000      0.00861363000000
  C   -1.11097775000000     -0.10003697000000      0.96155235000000
  C   -0.42404565000000     -1.35894696000000      1.03013480000000
  H   -2.21119836000000      1.13203010000000     -0.50163499000000
  H   -2.40310530000000     -0.56491240000000     -2.20426270000000
  H   -1.47090348000000     -2.80762325000000     -1.85170004000000
  H   0.16995318000000     -1.62136621000000      1.89140434000000
  H   -0.12691764000000     -3.29605518000000      0.14928241000000
  Pd  1.39866704000000      1.17752366000000      0.05070579000000
  O   2.82057943000000      1.00706126000000     -1.55062834000000
  O   2.60283745000000     -0.47544823000000      0.00055389000000
  O   0.36270030000000      2.88344166000000     -0.03864221000000
  C   0.10992272000000      2.96847217000000      1.28994493000000
  O   0.59127228000000      2.17200642000000      2.04058412000000
  H   -1.47895056000000      0.82396941000000      2.46846044000000
  C   3.18451109000000     -0.08681460000000     -1.05581300000000
  H   3.95373211000000     -0.70327565000000     -1.53112787000000
  H   -0.57797853000000      3.78603836000000      1.59360715000000
