21
Coordinates from ORCA-job 4_5_orca
  C   -1.71233960000000      0.18972151000000     -0.27754636000000
  C   -1.85476130000000     -0.78831121000000     -1.29029798000000
  C   -1.33927771000000     -2.06527784000000     -1.11108744000000
  C   -0.58452791000000     -2.31418592000000      0.02237770000000
  C   -1.10482421000000     -0.05156373000000      1.00829143000000
  C   -0.43835182000000     -1.32438658000000      1.02390941000000
  H   -2.16788732000000      1.15367675000000     -0.51851111000000
  H   -2.44163673000000     -0.57563316000000     -2.18755971000000
  H   -1.55968032000000     -2.84950838000000     -1.82343621000000
  H   0.19355664000000     -1.61255555000000      1.86716171000000
  H   -0.16385962000000     -3.31574153000000      0.16156468000000
  Pd  1.40062953000000      1.18831368000000      0.08578906000000
  O   2.86941063000000      1.04232031000000     -1.53565545000000
  O   2.58165619000000     -0.46854410000000     -0.02705215000000
  O   0.37052140000000      2.86343348000000      0.01517714000000
  C   0.10285215000000      2.97159223000000      1.22752650000000
  O   0.58681556000000      2.15054765000000      2.07465088000000
  H   -1.37626022000000      0.73063865000000      2.25748267000000
  C   3.21900642000000     -0.03920660000000     -1.03179764000000
  H   4.00099930000000     -0.66872217000000     -1.51956604000000
  H   -0.57876259000000      3.77768904000000      1.57845974000000
