21
Coordinates from ORCA-job 4_9_orca
  C   -1.71276072000000      0.20766282000000     -0.25932236000000
  C   -1.93650712000000     -0.79246618000000     -1.20610108000000
  C   -1.49731921000000     -2.09858984000000     -1.02405534000000
  C   -0.67561244000000     -2.30902201000000      0.07292471000000
  C   -1.06278537000000     -0.10342943000000      0.90422933000000
  C   -0.44636785000000     -1.31583046000000      1.02388932000000
  H   -2.04651371000000      1.18759469000000     -0.54859063000000
  H   -2.52679770000000     -0.59085215000000     -2.09460267000000
  H   -1.78919340000000     -2.91893498000000     -1.70537768000000
  H   0.24502518000000     -1.57684257000000      1.80228106000000
  H   -0.27531499000000     -3.30589671000000      0.21119163000000
  Pd  1.43032972000000      1.15838500000000      0.06808964000000
  O   3.00463730000000      1.17398629000000     -1.44141511000000
  O   2.58001425000000     -0.45625408000000     -0.07690807000000
  O   0.39912556000000      2.82318292000000      0.04315779000000
  C   0.09769079000000      2.94795318000000      1.28212073000000
  O   0.52790326000000      2.16227900000000      2.12237547000000
  H   -1.09681887000000      0.54468554000000      1.75569909000000
  C   3.26907370000000      0.02885107000000     -1.02738413000000
  H   4.11133474000000     -0.54117933000000     -1.43703412000000
  H   -0.59488802000000      3.76611711000000      1.53399507000000
