27
Coordinates from ORCA-job 5_11_orca
  Pd  -1.95620061000000     -1.50294618000000      0.39216610000000
  Cl  -3.10078037000000     -3.31665190000000     -0.42267420000000
  Cl  -0.30330939000000     -4.86283559000000      0.85783425000000
  Cl  -4.03791050000000     -0.83863034000000      1.48101448000000
  N   -1.00915327000000      0.03815557000000      1.37775684000000
  C   -1.35592081000000      0.58687239000000      2.53387195000000
  C   -0.82416846000000      1.81909917000000      2.95095756000000
  C   0.08109991000000      2.45583137000000      2.14641592000000
  C   -0.07987320000000      0.61945623000000      0.61135630000000
  C   0.48592462000000      1.85658094000000      0.95033188000000
  H   0.52284912000000      3.40924629000000      2.43261040000000
  H   -2.09914366000000      0.06896522000000      3.13866487000000
  H   -1.15688599000000      2.26150276000000      3.88029941000000
  C   0.30012685000000     -0.08578987000000     -0.57144423000000
  C   1.44304837000000      2.44514906000000      0.07172846000000
  C   1.79367658000000      1.81925573000000     -1.06309873000000
  C   1.25663279000000      0.53452222000000     -1.41321563000000
  H   1.87485108000000      3.40243211000000      0.35019548000000
  H   2.52229498000000      2.28512116000000     -1.73159100000000
  C   -0.31954435000000     -1.33044828000000     -0.87542800000000
  C   1.67281202000000     -0.10938228000000     -2.59151586000000
  C   0.12986481000000     -1.92626692000000     -2.04391693000000
  C   1.11367590000000     -1.33767384000000     -2.87738025000000
  H   2.39929204000000      0.37150423000000     -3.24618526000000
  H   1.45948336000000     -1.83099070000000     -3.78845207000000
  H   -0.52459626000000     -3.97290886000000     -0.13742961000000
  H   -0.27770446000000     -2.85295642000000     -2.41533091000000
