27
Coordinates from ORCA-job 5_13_orca
  Pd  -1.95541445000000     -1.50489326000000      0.39481966000000
  Cl  -3.10100811000000     -3.31676953000000     -0.42312921000000
  Cl  -0.29580517000000     -4.86807216000000      0.84742836000000
  Cl  -4.03849225000000     -0.84940052000000      1.49039832000000
  N   -1.01104919000000      0.04067379000000      1.37776849000000
  C   -1.35707878000000      0.59054028000000      2.53295796000000
  C   -0.82595272000000      1.82245783000000      2.94988185000000
  C   0.08161240000000      2.45835437000000      2.14564543000000
  C   -0.08070033000000      0.62132850000000      0.61086845000000
  C   0.48601927000000      1.85753597000000      0.95014657000000
  H   0.52367755000000      3.41070419000000      2.43285878000000
  H   -2.10047540000000      0.07230443000000      3.13831900000000
  H   -1.15836643000000      2.26538378000000      3.87883335000000
  C   0.29972710000000     -0.08503032000000     -0.57111882000000
  C   1.44457839000000      2.44541672000000      0.07298378000000
  C   1.79567342000000      1.81889459000000     -1.06286182000000
  C   1.25675718000000      0.53478968000000     -1.41273401000000
  H   1.87734342000000      3.40184597000000      0.35069538000000
  H   2.52530090000000      2.28415876000000     -1.72994482000000
  C   -0.32102763000000     -1.32959846000000     -0.87432258000000
  C   1.67345121000000     -0.10980913000000     -2.59095953000000
  C   0.12802915000000     -1.92510805000000     -2.04306524000000
  C   1.11268312000000     -1.33788865000000     -2.87696297000000
  H   2.40067627000000      0.36991497000000     -3.24552259000000
  H   1.45897329000000     -1.83164890000000     -3.78840892000000
  H   -0.52745821000000     -3.97963126000000     -0.14152710000000
  H   -0.28150079000000     -2.85038953000000     -2.41541831000000
