27
Coordinates from ORCA-job 5_1_orca
  Pd  -1.95275536000000     -1.54194220000000      0.47672487000000
  Cl  -3.11573055000000     -3.32007691000000     -0.45022722000000
  Cl  -0.10442675000000     -4.96955269000000      0.57276118000000
  Cl  -4.02942389000000     -1.10177016000000      1.70107080000000
  N   -1.06910690000000      0.09479966000000      1.38150120000000
  C   -1.40939216000000      0.66948556000000      2.52969646000000
  C   -0.85391133000000      1.90652899000000      2.91047447000000
  C   0.08461745000000      2.50162042000000      2.13981912000000
  C   -0.10285780000000      0.64763557000000      0.58509947000000
  C   0.49836000000000      1.89757873000000      0.95817452000000
  H   0.53962339000000      3.44530435000000      2.43989526000000
  H   -2.11097909000000      0.15974766000000      3.10784361000000
  H   -1.19196045000000      2.34960546000000      3.84623748000000
  C   0.30716806000000     -0.06091591000000     -0.58165138000000
  C   1.48134330000000      2.44294967000000      0.08875371000000
  C   1.84361875000000      1.81884367000000     -1.04523500000000
  C   1.28242548000000      0.55692299000000     -1.42627659000000
  H   1.93324147000000      3.38895194000000      0.36042194000000
  H   2.58493154000000      2.25321919000000     -1.68748832000000
  C   -0.37698192000000     -1.31110700000000     -0.81001126000000
  C   1.65774031000000     -0.14231432000000     -2.55962288000000
  C   0.10790832000000     -1.89865554000000     -2.05067496000000
  C   1.11715255000000     -1.31252735000000     -2.87349721000000
  H   2.42534952000000      0.32629433000000     -3.22492456000000
  H   1.43870513000000     -1.85599046000000     -3.78444289000000
  H   -0.60207635000000     -4.13782253000000     -0.19482670000000
  H   -0.37897347000000     -2.80374907000000     -2.40981030000000
