27
Coordinates from ORCA-job 5_4_orca
  Pd  -1.94840542000000     -1.51079682000000      0.39191277000000
  Cl  -3.09830997000000     -3.31668085000000     -0.41916105000000
  Cl  -0.28934027000000     -4.88120880000000      0.83878098000000
  Cl  -4.04653683000000     -0.86653376000000      1.50838455000000
  N   -1.00566655000000      0.04813131000000      1.37182767000000
  C   -1.36057142000000      0.59131198000000      2.53373370000000
  C   -0.82318793000000      1.83472415000000      2.94600642000000
  C   0.07785475000000      2.45846539000000      2.14307788000000
  C   -0.08448700000000      0.62271642000000      0.61209448000000
  C   0.48434440000000      1.86007295000000      0.95077253000000
  H   0.52742289000000      3.41555405000000      2.43358438000000
  H   -2.10488713000000      0.07774218000000      3.14106850000000
  H   -1.16216236000000      2.27345479000000      3.87773668000000
  C   0.29186742000000     -0.08743316000000     -0.56302242000000
  C   1.44825858000000      2.44315580000000      0.07177825000000
  C   1.79744466000000      1.82153285000000     -1.05903586000000
  C   1.25324108000000      0.53068901000000     -1.40918359000000
  H   1.88242807000000      3.40198939000000      0.35268764000000
  H   2.53326375000000      2.28475015000000     -1.72881197000000
  C   -0.31849737000000     -1.32391481000000     -0.87893561000000
  C   1.67061059000000     -0.12127977000000     -2.59291120000000
  C   0.11722913000000     -1.92941857000000     -2.03837259000000
  C   1.10972064000000     -1.32900393000000     -2.86749211000000
  H   2.41018748000000      0.37273038000000     -3.24997948000000
  H   1.46145114000000     -1.83323198000000     -3.79315368000000
  H   -0.52901014000000     -3.99159177000000     -0.15922708000000
  H   -0.28435754000000     -2.84022072000000     -2.41640919000000
