27
Coordinates from ORCA-job 5_6_orca
  Pd  -1.96379538000000     -1.48706430000000      0.36254684000000
  Cl  -3.09530943000000     -3.31529884000000     -0.41125852000000
  Cl  -0.38096713000000     -4.82752439000000      0.98175653000000
  Cl  -4.03854129000000     -0.73207771000000      1.38983153000000
  N   -0.99091354000000      0.01283038000000      1.38477408000000
  C   -1.34347450000000      0.54767874000000      2.54064173000000
  C   -0.80965337000000      1.78061764000000      2.96261317000000
  C   0.08135952000000      2.43859643000000      2.14746033000000
  C   -0.06440036000000      0.60383332000000      0.61106989000000
  C   0.48243278000000      1.84716777000000      0.95169213000000
  H   0.51569672000000      3.39336411000000      2.42863382000000
  H   -2.08761641000000      0.03631958000000      3.14595444000000
  H   -1.14381126000000      2.22751230000000      3.89718741000000
  C   0.30204879000000     -0.08929392000000     -0.57124268000000
  C   1.42401883000000      2.44837634000000      0.07157904000000
  C   1.77746685000000      1.81729256000000     -1.07821863000000
  C   1.24551901000000      0.52128083000000     -1.40862259000000
  H   1.85109571000000      3.40759007000000      0.34618841000000
  H   2.49444982000000      2.29690353000000     -1.74738828000000
  C   -0.29735591000000     -1.33364512000000     -0.89304263000000
  C   1.65851318000000     -0.11758612000000     -2.59621727000000
  C   0.14806787000000     -1.93992640000000     -2.05696491000000
  C   1.12114817000000     -1.33052977000000     -2.87462667000000
  H   2.39576310000000      0.39468882000000     -3.26085765000000
  H   1.46553887000000     -1.82102125000000     -3.78713739000000
  H   -0.49573231000000     -3.89792623000000     -0.12301105000000
  H   -0.23841076000000     -2.87478050000000     -2.41677606000000
