9
Coordinates from ORCA-job 3_0_orca
  Pt  -1.13613320000000     -0.95617976000000      0.59173761000000
  Cl  -0.29528571000000     -0.75228540000000      2.76035632000000
  Cl  -2.75572684000000     -2.44594498000000      1.18024490000000
  Cl  -1.82045851000000     -0.98191126000000     -1.63788226000000
  C   1.15405323000000      1.05134661000000     -0.62099912000000
  H   1.44937302000000      2.03147576000000     -0.25434049000000
  H   1.31003978000000      0.25207000000000      0.43651588000000
  H   1.89336456000000      0.66310609000000     -1.31702048000000
  H   0.20077367000000      1.13831564000000     -1.13860695000000
