9
Coordinates from ORCA-job 3_1_orca
  Pt  -1.14125495000000     -0.97183686000000      0.59152330000000
  Cl  -0.29559758000000     -0.72552987000000      2.73719754000000
  Cl  -2.72146474000000     -2.39265016000000      1.17417294000000
  Cl  -1.77797127000000     -0.99532687000000     -1.63568125000000
  C   1.20779098000000      0.92107037000000     -0.43720944000000
  H   1.45603307000000      2.00624793000000     -0.22069733000000
  H   1.24099698000000      0.34024287000000      0.21876272000000
  H   1.86144582000000      0.68027815000000     -1.33852335000000
  H   0.16830275000000      1.13747868000000     -1.09036238000000
