9
Coordinates from ORCA-job 3_3_orca
  Pt  -1.14682668000000     -0.97589181000000      0.59000968000000
  Cl  -0.29611010000000     -0.72102220000000      2.72552383000000
  Cl  -2.71486481000000     -2.38250419000000      1.17541720000000
  Cl  -1.76838439000000     -0.99633329000000     -1.63148780000000
  C   1.18277817000000      0.93819056000000     -0.47156006000000
  H   1.45907036000000      1.97913879000000     -0.20909365000000
  H   1.21439388000000      0.36696781000000      0.17030248000000
  H   1.85125703000000      0.68333817000000     -1.32370269000000
  H   0.21567219000000      1.10825188000000     -1.02675673000000
