9
Coordinates from ORCA-job 3_6_orca
  Pt  -1.13840103000000     -0.96683048000000      0.58560660000000
  Cl  -0.29566930000000     -0.71933686000000      2.71979093000000
  Cl  -2.72669717000000     -2.39062145000000      1.18295890000000
  Cl  -1.76518111000000     -0.99620899000000     -1.63272615000000
  C   1.17792295000000      1.01878165000000     -0.57274852000000
  H   1.46859007000000      1.98568981000000     -0.19299347000000
  H   1.20888510000000      0.29839759000000      0.24799622000000
  H   1.86165266000000      0.67758810000000     -1.32917208000000
  H   0.20423190000000      1.09310486000000     -1.01040380000000
