9
Coordinates from ORCA-job 3_7_orca
  Pt  -1.13628208000000     -0.96462305000000      0.58422805000000
  Cl  -0.29499517000000     -0.71821270000000      2.71834656000000
  Cl  -2.73024958000000     -2.39249860000000      1.18545568000000
  Cl  -1.76372082000000     -0.99617653000000     -1.63405605000000
  C   1.17936188000000      1.01639304000000     -0.56947736000000
  H   1.47216492000000      1.98964327000000     -0.18847937000000
  H   1.20584759000000      0.29860364000000      0.24642490000000
  H   1.86656501000000      0.67645706000000     -1.33497215000000
  H   0.19585022000000      1.09115566000000     -1.00930848000000
