39
Coordinates from ORCA-job reaction4-IEIP_ts_guess_scan_14-2_orca
  Ir  0.63076714418289     -0.72753803657828      0.37695368677573
  C   0.18256449893219     -2.85522389044007      0.30225676196253
  C   -0.05918154463973     -2.42676758372278      1.65671945856189
  C   2.16841673114752     -2.04950930465535      1.16377302956307
  C   1.55227484008327     -2.65311939028115      0.01737698943097
  C   1.16195280112641     -1.94896286874168      2.17045472859145
  N   -1.07333112444252      0.12279398674448     -0.51434421119342
  C   -2.33020821658386      0.32809730412390      0.21838487640571
  C   -3.12112620216259      1.54167514056354     -0.24803612229504
  H   -3.94206721139438      1.71428952413337      0.44609605272579
  H   -3.56984065167854      1.40306342831963     -1.23263908118544
  H   -2.51034384829988      2.44464520055640     -0.26380928732806
  C   -3.16519744862886     -0.94619428789964      0.14613016559003
  H   -2.02926506451122      0.49395836065859      1.25387932283075
  H   -4.05598367780838     -0.84098934402489      0.76403188528035
  H   -3.48937912008636     -1.14601701906963     -0.87595072673545
  H   -2.61633464163598     -1.81542303431072      0.50466277795043
  C   -0.93460292406034      0.48110550229858     -1.73826860609078
  C   0.38126283055640      0.28280702532876     -2.26397033213871
  H   -1.73924071786027      0.92904377408012     -2.31139744342578
  C   1.38888520532135      0.00573338627384     -1.32233147414953
  C   2.62126411347252     -0.23687161565199     -2.02548620534620
  S   0.91025937435753      0.26783962033905     -3.86807050172198
  C   2.50661646830332     -0.12565006941625     -3.37438600398290
  H   1.58547522010943      1.11998130666284     -0.74289132598743
  H   3.56521145838177     -0.42074564585201     -1.53259432869127
  H   3.28454712429333     -0.22905111094632     -4.11551972809143
  H   -0.53905822446936     -3.30566760283552     -0.36340110975228
  H   -0.99198165104259     -2.49023766747396      2.19562982888188
  H   1.30005584514648     -1.50640911181683      3.14677763170976
  O   1.65909476041234      2.36684472074628      0.03493501408212
  O   0.60659525142544      1.02642381605931      1.46972639396512
  C   1.11572719485021      2.14442838316441      1.12920080623380
  C   1.06414077249566      3.23890115561331      2.15737347219134
  H   0.98757334882189      4.21260933429863      1.68002861338537
  H   1.99333813104215      3.22770876881513      2.72984476799149
  H   0.24135598344766      3.09635011705642      2.85289611477376
  H   3.21509703379223     -1.81853893942029      1.28743071800516
  H   2.04403621760289     -2.90619333269925     -0.91072648877279
