39
Coordinates from ORCA-job reaction4-IEIP_ts_guess_scan_12-10_orca
  Ir  0.61384160299689     -0.73881194291253      0.41286403801659
  C   0.15667360813200     -2.85405356843074      0.33645750307240
  C   -0.10239920790099     -2.41129558326176      1.68304686349027
  C   2.13741023570706     -2.05985225331009      1.22214326589983
  C   1.53223042943697     -2.66164851870208      0.06920937442967
  C   1.11769453500029     -1.94085303739793      2.21177603872088
  N   -1.07595280593540      0.10742232102141     -0.50827939532798
  C   -2.34770800282035      0.29120422332763      0.20669161689959
  C   -3.13870212795142      1.50864191053628     -0.25038936634772
  H   -3.97018419788331      1.66540100155102      0.43487840151653
  H   -3.57261234527670      1.38539659794833     -1.24359297897832
  H   -2.53226547589449      2.41462973912524     -0.24228221580417
  C   -3.17512760404168     -0.98491523328810      0.09871636188120
  H   -2.06751140440841      0.44251155414057      1.25029357749294
  H   -4.07883120004265     -0.89466584530915      0.70014909926155
  H   -3.47760691296100     -1.17030716962403     -0.93272273876137
  H   -2.62961251902869     -1.85776770077061      0.45373327452534
  C   -0.92822482586192      0.47946325937339     -1.72723375331051
  C   0.38733891777203      0.31027117220115     -2.26294990744372
  H   -1.73847745535911      0.92030768769715     -2.29872321478340
  C   1.41102973264118      0.02079261969829     -1.35849031352302
  C   2.63075605124331     -0.19726685279284     -2.07290412865150
  S   0.89433112185976      0.34373747391161     -3.88164174966060
  C   2.49551738389477     -0.04894834856325     -3.42028842287485
  H   1.63266127307333      1.16228548121596     -0.66768186130316
  H   3.58139407523307     -0.39769505477617     -1.59998198745167
  H   3.26439310072036     -0.13150934568622     -4.17346290555240
  H   -0.55861477043706     -3.30098570912937     -0.33836931394801
  H   -1.04234775923129     -2.46643904822980      2.21036907392347
  H   1.24526207216544     -1.49372466658933      3.18751174521215
  O   1.75026838255827      2.30256313534183      0.05879742438963
  O   0.59398720813784      1.04058110728426      1.48157720403863
  C   1.16013403818772      2.12266352011447      1.14767355651106
  C   1.13978998965061      3.24746444424642      2.13916992320850
  H   1.01887257442612      4.20290737804874      1.63375501292251
  H   2.09894729623510      3.27694935159009      2.65903803545569
  H   0.35557572879440      3.11282948312918      2.87854394797734
  H   3.18334477425923     -1.83143797554768      1.35618423793631
  H   2.03409448290872     -2.91665562718134     -0.85284535305964
