39
Coordinates from ORCA-job reaction4-IEIP_ts_guess_scan_10-5_orca
  Ir  0.61528624123567     -0.71645685982274      0.42652815068981
  C   0.12270986252669     -2.82985291392596      0.34560206389482
  C   -0.02456317346996     -2.36430766710040      1.69952676391068
  C   2.18182417924051     -2.07341395813411      1.07032279826331
  C   1.46771115471143     -2.65202242602497     -0.03921099483092
  C   1.25700045248002     -1.92682918847469      2.13320035942363
  N   -1.06262563723373      0.13148324575893     -0.51731543336247
  C   -2.33366235465714      0.35718148538886      0.18792430452947
  C   -3.13453802391943      1.53280620422133     -0.35314339329558
  H   -3.96244962313569      1.73583852243508      0.32447627377302
  H   -3.57546966540878      1.33129427729937     -1.33038409098434
  H   -2.53486154258161      2.44097390398406     -0.41757142308837
  C   -3.15366485747889     -0.92833596871493      0.17455577035599
  H   -2.04877489926340      0.58206995185138      1.21669364334406
  H   -4.05999725072258     -0.79484359740583      0.76371167941701
  H   -3.45198162548413     -1.19426318873685     -0.84034769723434
  H   -2.60690058700384     -1.76766140130182      0.60101602738294
  C   -0.90728403128420      0.44660444346685     -1.74952081226778
  C   0.41603677123968      0.26462675651210     -2.27212099490165
  H   -1.71464520151925      0.85550091567848     -2.34877639872682
  C   1.47484002551121      0.14738099670767     -1.37070682640014
  C   2.68304931972997     -0.13696041111865     -2.07889349840707
  S   0.87821921063487      0.05032176297550     -3.88936974188365
  C   2.50800705293795     -0.21188576160955     -3.42626625074077
  H   1.60559510770294      1.14442885875354     -0.62095108636253
  H   3.65176061257911     -0.22082323365867     -1.60805950349962
  H   3.25739791557280     -0.38512752040470     -4.18356653413596
  H   -0.65868720151572     -3.24801615255914     -0.27222175067856
  H   -0.91803965096433     -2.40604214523360      2.30375995595783
  H   1.47457013333328     -1.48496553152815      3.09538287615418
  O   1.68278013075086      2.33163018743434      0.16987872890052
  O   0.54156564146159      1.00844546949790      1.54855095548589
  C   1.09240528366700      2.11996365587575      1.23881009955312
  C   1.02402097487675      3.20283112733446      2.27664875215319
  H   1.01131709143041      4.18382729007021      1.80845475965688
  H   1.91773234629819      3.14872367672756      2.90085707360318
  H   0.15891363677070      3.08478135354489      2.92406963850664
  H   3.23691731518983     -1.85061101673066      1.10975345791980
  H   1.88785491576124     -2.90910514303284     -1.00055755207541
