39
Coordinates from ORCA-job reaction4-IEIP_ts_guess_scan_6-9_orca
  Ir  0.60297761038553     -0.72838964307126      0.47141417091028
  C   0.06468906954017     -2.82129113235781      0.37907865208218
  C   0.02159486866977     -2.35435706588448      1.74002086766257
  C   2.18516320507772     -2.12427460500891      0.96665420421904
  C   1.37873007974287     -2.66373073268647     -0.10304377814711
  C   1.35161003221827     -1.96544645750056      2.09291250034898
  N   -1.04283339717458      0.13135604286925     -0.51388348503856
  C   -2.31960869696503      0.39867555953803      0.16906269095495
  C   -3.10684803538373      1.55069210939327     -0.43749046028083
  H   -3.93667639897918      1.79711791720139      0.22347362418037
  H   -3.54486920877860      1.30258313093823     -1.40524823677662
  H   -2.49862764311660      2.44897368625306     -0.54586813889722
  C   -3.14827281214799     -0.87974802907500      0.22098983405666
  H   -2.03999192515241      0.67441348965228      1.18693866218966
  H   -4.06259173435510     -0.70306801244179      0.78577001665019
  H   -3.43289147804840     -1.20694381228877     -0.77988140134248
  H   -2.61516670064196     -1.69314642239399      0.71061905823877
  C   -0.87232360795820      0.38923656474458     -1.75645343793712
  C   0.45968011832873      0.21439522110134     -2.27062781749989
  H   -1.67945969609096      0.75854498414251     -2.38220840658924
  C   1.54880234668027      0.29774040984700     -1.41046049728466
  C   2.75170807267441     -0.01577127057413     -2.10509623605973
  S   0.89350986145798     -0.19969057482949     -3.86338810189538
  C   2.54753668361921     -0.29539855597207     -3.42216307237029
  H   1.55757763734443      1.25455064330925     -0.60049248090417
  H   3.73455751024397      0.02129597395710     -1.65828814495816
  H   3.28742379891151     -0.53215841044908     -4.17170856844872
  H   -0.77172607025558     -3.20560428215646     -0.18678735410042
  H   -0.82860915594337     -2.38255517434536      2.40498256195336
  H   1.64962473793633     -1.54564175271516      3.04321256887012
  O   1.50438050156210      2.37351383392889      0.19065084887803
  O   0.54184914995540      0.96567918254381      1.62337755402528
  C   1.00770744804473      2.11203604940905      1.29512861416119
  C   0.95474852697711      3.16605817727722      2.36230429465371
  H   0.93759905775887      4.16063287946682      1.92485861767929
  H   1.85328155091795      3.08957800064100      2.97765327176684
  H   0.09759003803878      3.02908205463375      3.01736875918930
  H   3.24184615570513     -1.90837034670988      0.92282349958098
  H   1.72567841920048     -2.91137955038717     -1.09546520372115
