39
Coordinates from ORCA-job reaction4-IEIP_ts_guess_scan_6-10_orca
  Ir  0.60610131756010     -0.73285708858042      0.47858078469366
  C   0.10139445484421     -2.83207488817095      0.35312671996168
  C   -0.02286579266928     -2.37099714430128      1.71228377937942
  C   2.17821328424644     -2.10739896927869      1.06141674788208
  C   1.43971420515662     -2.65714978474431     -0.04973165239361
  C   1.27733634725280     -1.96352480433954      2.13888039667478
  N   -1.04324359771587      0.12325779233923     -0.50220536209991
  C   -2.32044327088393      0.37471853340361      0.18640594873042
  C   -3.09473757880478      1.55772586963143     -0.37676950644831
  H   -3.92533352511253      1.78510281519293      0.28999024253816
  H   -3.52988885746916      1.35319863527810     -1.35584604306701
  H   -2.47727965214788      2.45344368766109     -0.44684004374803
  C   -3.15968208950176     -0.89784797381009      0.18037404387713
  H   -2.04462490964935      0.60811016643167      1.21568554424340
  H   -4.06989356065623     -0.74374871550538      0.75834823539323
  H   -3.45163608670900     -1.17233905976046     -0.83414939214088
  H   -2.62974496568537     -1.73974640821761      0.62332400958211
  C   -0.88202215264699      0.39148308429557     -1.74417864582884
  C   0.44353864208321      0.22220469563697     -2.27359081272690
  H   -1.69585974528816      0.76367798391947     -2.35966762745248
  C   1.54082201803514      0.26835523607980     -1.42216924400172
  C   2.73418192002997     -0.03310650860338     -2.13735297271809
  S   0.85961760362966     -0.14115692338108     -3.88410964190612
  C   2.51543519173711     -0.26597300053847     -3.46181027689481
  H   1.58167715387383      1.23372619620110     -0.60037362207832
  H   3.72149764056018     -0.02031430848651     -1.69913195722497
  H   3.24658253069652     -0.48390774093526     -4.22550688918728
  H   -0.69513260696469     -3.22998236023895     -0.25880909077910
  H   -0.90756451260193     -2.41286779483703      2.32986030293746
  H   1.51454138719410     -1.54058786395022      3.10491130935930
  O   1.56058267867244      2.34776932120769      0.17441645647776
  O   0.55041438166156      0.97768252755473      1.61034541952886
  C   1.03765781974548      2.11067441108824      1.27418011588189
  C   0.98365465711702      3.18649498733434      2.31888988361403
  H   0.92292036090976      4.16921879364154      1.85844237685091
  H   1.90452956862088      3.15475199697283      2.90434329479229
  H   0.15161954510326      3.03992030807037      3.00299121629412
  H   3.23375587490656     -1.88334596141221      1.07959904334222
  H   1.84353431087003     -2.89339972284887     -1.02341295133853
