39
Coordinates from ORCA-job reaction4-IEIP_ts_guess_scan_5-6_orca
  Ir  0.59877281947308     -0.71981799421113      0.45965006734791
  C   0.04809100039949     -2.80776871607925      0.36746010853607
  C   0.08178093953072     -2.34856703441700      1.73215702291972
  C   2.19906987576628     -2.12714337147574      0.84547000038394
  C   1.33266860689786     -2.65083654860736     -0.18593319437741
  C   1.43513977605583     -1.97500271039230      2.01828916876390
  N   -1.04439571486117      0.15122431680916     -0.52071270003305
  C   -2.31789813067030      0.44904920650966      0.15434196112317
  C   -3.11642715350340      1.55728658118809     -0.51395233791251
  H   -3.94478064640862      1.83568472974123      0.13612367774255
  H   -3.55768705723001      1.25086164490981     -1.46359785617447
  H   -2.51605472657730      2.45278860913250     -0.67654203209611
  C   -3.13567402887276     -0.83000383674073      0.28980825783879
  H   -2.03095225001499      0.78556208255308      1.15181721841819
  H   -4.05094241938942     -0.62228897049200      0.84216137986596
  H   -3.41827747442450     -1.22489992367901     -0.68691158745735
  H   -2.59718154655530     -1.60415041294080      0.83431258935080
  C   -0.86103159926504      0.38023426425131     -1.76528621524767
  C   0.48091501097732      0.18333766484207     -2.25507136524545
  H   -1.65627154431239      0.74083496450515     -2.41109962252727
  C   1.57216585177138      0.38703816807907     -1.41625187030843
  C   2.77973016021206      0.02098239556776     -2.07761587669958
  S   0.92025802279261     -0.40242377753765     -3.79196517673524
  C   2.57873039907883     -0.41497312567821     -3.35057289884274
  H   1.53354501152005      1.30845464793420     -0.62968715857994
  H   3.76201061446260      0.13126625132913     -1.64167376845042
  H   3.32055334862249     -0.72241849616579     -4.07209668372092
  H   -0.82199646233993     -3.17914851351440     -0.15467677588609
  H   -0.73169504726268     -2.37672634580398      2.44178677103454
  H   1.78871491838805     -1.56841599343446      2.95500199090724
  O   1.39339376292248      2.42699016622808      0.22438544509790
  O   0.53378764854498      0.94059542128481      1.64556322515488
  C   0.94983921080900      2.11678483467371      1.33245965882464
  C   0.89802669078359      3.12623046324931      2.44361206140159
  H   0.87481944865367      4.13724235007128      2.04622154331699
  H   1.79830079538870      3.02805262077306      3.05342518709933
  H   0.04451494957395      2.96108063189322      3.09750161152911
  H   3.25075691567383     -1.90674963131799      0.74042165303453
  H   1.62505007338897     -2.89105655303791     -1.19758341939709
