39
Coordinates from ORCA-job reaction4-IEIP_ts_guess_scan_11-1_orca
  Ir  0.63517105114221     -0.71621009820989      0.40755795078170
  C   0.14971451508078     -2.83503789728993      0.30999242660016
  C   0.00588832125218     -2.38533943044934      1.66941413555583
  C   2.20738569616777     -2.07454495746163      1.03460896022348
  C   1.49253334229282     -2.64841806527358     -0.07688145537892
  C   1.28498595279505     -1.94406358818861      2.10262550548939
  N   -1.05250754945298      0.13463946671840     -0.51677975413828
  C   -2.31028952283841      0.38774850302564      0.20184472299651
  C   -3.09135287577763      1.57872589549318     -0.33417115273221
  H   -3.90924885282272      1.80013905811685      0.34996040486787
  H   -3.54423532933806      1.38542108931235     -1.30753013433917
  H   -2.47299707460244      2.47380025253650     -0.40497682120424
  C   -3.15385510119912     -0.88254060357572      0.20246945062718
  H   -2.00814632112510      0.60880871394094      1.22631157098417
  H   -4.04581096433885     -0.73265344098042      0.80919979839354
  H   -3.47642816728201     -1.14213888166096     -0.80663452838897
  H   -2.61308487783278     -1.73146828765743      0.61793306659745
  C   -0.90828453770526      0.42036206519739     -1.75729701277527
  C   0.41485180029444      0.21588163719826     -2.27499036918240
  H   -1.71467774395789      0.82494648596263     -2.36056948619895
  C   1.46760033739963      0.13787757884751     -1.35551098362145
  C   2.68653037887257     -0.15523649778681     -2.04816899907562
  S   0.89063082934238     -0.05746782442631     -3.87548293240536
  C   2.52251654952987     -0.28481718946541     -3.39088000922636
  H   1.54827869547127      1.15092721791957     -0.67395953114863
  H   3.65249688873555     -0.20828144172971     -1.56722987674464
  H   3.27846962925553     -0.47768859499823     -4.13680866756462
  H   -0.63213344300484     -3.25169193720440     -0.30830536337553
  H   -0.88629644587858     -2.43494168360145      2.27497655127333
  H   1.50324879290165     -1.51019341897831      3.06824493474190
  O   1.51558033886322      2.40480348046751      0.12232688395948
  O   0.56794705514907      0.98720304708858      1.55475915070411
  C   1.01987358818636      2.14007145791041      1.22279021807710
  C   0.94756817444918      3.19556723700185      2.29008755196006
  H   0.89985205218893      4.18779183493041      1.84927898631429
  H   1.85408284934980      3.14605945839119      2.89611875630834
  H   0.10023088285497      3.03877765865776      2.95328290012093
  H   3.26218871820858     -1.85057581810466      1.07433099549040
  H   1.91109242737285     -2.89705252167413     -1.04119771456662
