39
Coordinates from ORCA-job reaction4-IEIP_ts_guess_scan_2-8_orca
  Ir  0.57842625512290     -0.73098330926414      0.48703072525113
  C   0.02176209358879     -2.80973714003793      0.36587043729768
  C   0.09064004164881     -2.36453229026978      1.73602850987187
  C   2.18575297463963     -2.14577114665908      0.80516434534336
  C   1.29240921445280     -2.64781315803858     -0.21483550571659
  C   1.45619013889781     -2.00903147063628      1.99906137926733
  N   -1.04209405265882      0.15648915601907     -0.51253273484220
  C   -2.31979477876550      0.47662705360868      0.14477893893712
  C   -3.12505103274964      1.54522951356430     -0.57730780111855
  H   -3.95746620187156      1.84666823592575      0.05710978101234
  H   -3.56108205089847      1.19157859201023     -1.51297340118571
  H   -2.53256639717517      2.43793371606756     -0.77996989215154
  C   -3.12947052491402     -0.79913141557418      0.34182287409677
  H   -2.03716089368212      0.86410449083331      1.12509184859399
  H   -4.04964875732261     -0.56869644280299      0.87664625099194
  H   -3.40358533409330     -1.24630701200879     -0.61462025102968
  H   -2.59121625377338     -1.54016429365965      0.93105786147108
  C   -0.83977482377876      0.36606910076544     -1.75684892189220
  C   0.50852816582305      0.16574930488871     -2.23546407756941
  H   -1.62752989404313      0.71576877250654     -2.41818055286796
  C   1.61173120703289      0.48766212065396     -1.45431335400828
  C   2.81392580995306      0.10284375147288     -2.11262519335285
  S   0.93244145898049     -0.53544071034661     -3.73430518119834
  C   2.59961427138683     -0.45134982268767     -3.33666202533153
  H   1.53635823780621      1.37641482855759     -0.63581512283080
  H   3.80179352839235      0.28271749154127     -1.71391684024195
  H   3.33575448480196     -0.79713190969306     -4.04664838408012
  H   -0.86364588268779     -3.16770202810820     -0.13962728619918
  H   -0.70597092399004     -2.39899155659277      2.46463726656203
  H   1.83548572498468     -1.62123488721601      2.93357985540351
  O   1.35318600334707      2.42531261887030      0.25101374528154
  O   0.53534966373095      0.91846474995820      1.67781341102410
  C   0.93284796734448      2.10305974141918      1.36334146926720
  C   0.88567253444789      3.10287695261076      2.48319061569493
  H   0.84589223512695      4.11628633262708      2.09322113626501
  H   1.79550235062039      3.01072057576442      3.07968738475492
  H   0.04355552220625      2.92422897624179      3.14826957718770
  H   3.23275743655297     -1.91753375093190      0.67149182938238
  H   1.55985051151512     -2.86606372137938     -1.23852260734103
