39
Coordinates from ORCA-job reaction4-IEIP_ts_guess_scan_3-5_orca
  Ir  0.58947289942596     -0.72234521584135      0.46306458767018
  C   0.03654111280052     -2.80496876437656      0.35200262761510
  C   0.10628100414918     -2.35539138163265      1.72046725610686
  C   2.19938215596036     -2.13337522990201      0.78478511372214
  C   1.30611506973700     -2.64321428550009     -0.23126183636968
  C   1.47032615047162     -1.99364567182012      1.97916035619464
  N   -1.04464397778609      0.16338952876919     -0.51849652940615
  C   -2.31702675185084      0.48507783398661      0.14699463331980
  C   -3.12382257056022      1.55651021181675     -0.56883350245270
  H   -3.95334530004535      1.85733286102486      0.06965049221677
  H   -3.56395733604532      1.20572053053451     -1.50368604592305
  H   -2.53086010993708      2.44897108181525     -0.77118054321835
  C   -3.12679324555693     -0.79041227007669      0.34567192145159
  H   -2.02709166210449      0.86932115466056      1.12633161163473
  H   -4.04162253545803     -0.56082802117532      0.88990344116183
  H   -3.41018330355361     -1.23299995948837     -0.61018015559207
  H   -2.58379474092459     -1.53466320255278      0.92646587951038
  C   -0.84688528823151      0.37304978864018     -1.76273257774336
  C   0.50207859524884      0.15922600627373     -2.23661701535208
  H   -1.63169151582636      0.72944700871372     -2.42378866132524
  C   1.60204895168577      0.47542310999007     -1.44690922271827
  C   2.80741782661271      0.07528923601155     -2.09229541148174
  S   0.93200476735645     -0.56488467949969     -3.72010997632241
  C   2.59799427871089     -0.49101280901900     -3.31067927879332
  H   1.53189964450689      1.36499322382991     -0.65743413335111
  H   3.79295259116957      0.25282732044144     -1.68693519063777
  H   3.33606888948477     -0.85088437101494     -4.01153080454006
  H   -0.84859610756958     -3.16750133996190     -0.15071979008614
  H   -0.68901219055393     -2.38872919221265      2.45049685770107
  H   1.84949710612387     -1.59967702129171      2.91116576793556
  O   1.33046716194703      2.44785542825379      0.25231897877018
  O   0.53469004372206      0.91731717096991      1.66603048113417
  C   0.91903035975311      2.11085026541478      1.36122084794715
  C   0.86361492415596      3.09570550027434      2.49491636081651
  H   0.82278119484020      4.11401345176275      2.11807161449915
  H   1.77025219163488      2.99802749974348      3.09532728815835
  H   0.01857573157456      2.90666481051654      3.15356906952269
  H   3.24627154856579     -1.90544798137807      0.65018323224880
  H   1.57293238636594     -2.86784157670002     -1.25366769402413
