39
Coordinates from ORCA-job reaction4-IEIP_ts_guess_scan_14-11_orca
  Ir  0.61410778503289     -0.74749809566146      0.38399841227520
  C   0.19538082670548     -2.86727623364563      0.32001311336004
  C   -0.13394900512372     -2.45046255577474      1.66208727687600
  C   2.11038028595805     -2.03219607244270      1.30299867906426
  C   1.58410137509855     -2.65488036440984      0.12899446662053
  C   1.03584017900030     -1.95050384095495      2.24884897117249
  N   -1.09248425901968      0.09550131177792     -0.50356861211670
  C   -2.36096776517604      0.25110733291020      0.22240071047674
  C   -3.14436976776710      1.49487193358508     -0.17168147326521
  H   -3.97612936350206      1.62104584365150      0.51956351837781
  H   -3.57718995213658      1.42681319516317     -1.17068913025194
  H   -2.53176846680074      2.39494558390044     -0.11574862368384
  C   -3.19518190542130     -1.01394474137328      0.05363143660889
  H   -2.07774726509828      0.34924506746728      1.27160294752035
  H   -4.09072609692320     -0.95565088940598      0.67106541181641
  H   -3.51173188479094     -1.13892613168235     -0.98265304987843
  H   -2.64738214847031     -1.90757563351366      0.34888939218110
  C   -0.95085392971136      0.50202334747640     -1.71291875074570
  C   0.36254402975235      0.33262262339323     -2.24895319972408
  H   -1.76012402442856      0.96360954139210     -2.26876451637484
  C   1.35410678341353     -0.05726099206659     -1.34110277763289
  C   2.58830669706776     -0.24262103904285     -2.04698031985029
  S   0.91227145434291      0.49098680446758     -3.84648662666555
  C   2.49000130803203      0.02292423944430     -3.38030882448445
  H   1.64471328201798      1.19860133966787     -0.76150940685722
  H   3.52243145338658     -0.50821318205455     -1.57303923385188
  H   3.27691951242400     -0.01567596041913     -4.11825113019423
  H   -0.47137893446967     -3.34210849139231     -0.38463414640296
  H   -1.10080615379115     -2.52108606233979      2.13619400456717
  H   1.10412149903502     -1.50578634835801      3.23134919481760
  O   1.77208365908963      2.32327092178466     -0.03890271382641
  O   0.64292019551470      1.06448394676530      1.41247176588733
  C   1.20194294424564      2.13989735804019      1.06677084524846
  C   1.21256742597569      3.27041563882711      2.05110053367102
  H   1.10320405258283      4.22629629810265      1.54415771772070
  H   2.17694812103394      3.28358318633691      2.56212812925071
  H   0.43369829837046      3.15090746060365      2.79863806119296
  H   3.14388990475831     -1.78762189197604      1.49337058930827
  H   2.13967981979207     -2.90467455824367     -0.76334254220741
