39
Coordinates from ORCA-job reaction4-IEIP_ts_guess_scan_9-14_orca
  Ir  0.60001896811018     -0.74145512366031      0.45755216047072
  C   0.12815136331789     -2.84803509094991      0.37240120291127
  C   -0.11982666032082     -2.38154157707896      1.71249945002107
  C   2.12487300372072     -2.07268862885950      1.24195701687027
  C   1.50127747046542     -2.66688390005040      0.09214345363693
  C   1.11710401864013     -1.92781325835993      2.23351972071126
  N   -1.06868763498206      0.09869045847766     -0.50494621822717
  C   -2.35291827868160      0.28192839165869      0.19071991701117
  C   -3.14042011574412      1.49520487600508     -0.28399778844617
  H   -3.97882047917639      1.65687473023385      0.39168196655101
  H   -3.56443633292566      1.36412996429585     -1.28041305645336
  H   -2.53454670728471      2.40152428891817     -0.27714731638428
  C   -3.17700956801863     -0.99566174425188      0.07891418874057
  H   -2.08969017749814      0.44123504082422      1.23750265516529
  H   -4.09234037250274     -0.90137061129032      0.66191022968961
  H   -3.45951988966546     -1.19103048142101     -0.95638421640867
  H   -2.63831442326216     -1.86505835830894      0.45255980273607
  C   -0.91419785764748      0.45294194561392     -1.72823266144549
  C   0.40043061315425      0.30747055980471     -2.27538176150837
  H   -1.73210195352956      0.86875181889712     -2.30858279038426
  C   1.46160327034393      0.08385859329612     -1.40781398650743
  C   2.66154498580034     -0.12966799420113     -2.14264686577794
  S   0.85684597907468      0.29574786797075     -3.91555259540575
  C   2.47997111151950     -0.03494690510396     -3.49178483002324
  H   1.65944113477410      1.17590192423954     -0.58305199230367
  H   3.63058897891114     -0.29102259530230     -1.69312517476155
  H   3.22753032694169     -0.12669231623846     -4.26512604974464
  H   -0.59825569591992     -3.28497571153077     -0.29711494280947
  H   -1.05474217664553     -2.42721310120519      2.24990565743545
  H   1.25704862611098     -1.47709033979560      3.20599928278700
  O   1.79413243349061      2.25989482153692      0.12180093731745
  O   0.56730316666611      1.04091235571496      1.52089874708581
  C   1.17175003953131      2.10400416659157      1.19957593211886
  C   1.16198840549283      3.23613124595191      2.18052979265589
  H   1.03598117862929      4.18685914587291      1.66695817359481
  H   2.12703225650163      3.27229861298115      2.68887339176864
  H   0.38463265160350      3.10890576466868      2.92816534609360
  H   3.17319121277364     -1.84669498312326      1.36072342765122
  H   1.99275713823111     -2.92423375282195     -0.83475007643254
