39
Coordinates from ORCA-job reaction4-IEIP_ts_guess_scan_5-13_orca
  Ir  0.59125749024092     -0.74021992324375      0.50198734223061
  C   0.08569751874444     -2.83619990236435      0.38224539577354
  C   -0.05720303180281     -2.36591050926949      1.73667796476657
  C   2.15440730961957     -2.11250535131564      1.11625976248346
  C   1.43041343750106     -2.66600089532805     -0.00209645245040
  C   1.23837529613077     -1.95927396134127      2.17929960253664
  N   -1.04569237730173      0.11402567817712     -0.49828893218074
  C   -2.33280043123434      0.34707745558592      0.17966174256964
  C   -3.11150707560670      1.53068222123595     -0.37684949875418
  H   -3.94883710013119      1.74448260285561      0.28589907317748
  H   -3.53773257457075      1.33397532690024     -1.36145129131263
  H   -2.50036627045012      2.43173200629205     -0.43241312227119
  C   -3.16351473126118     -0.93063900335845      0.14864004996049
  H   -2.07131966682573      0.57132194498867      1.21479889504124
  H   -4.08280656899372     -0.78950759974127      0.71558166081611
  H   -3.43959363628730     -1.19548494337890     -0.87289070662211
  H   -2.63473969544865     -1.77457396462685      0.58889115333010
  C   -0.87797630694909      0.40168843387432     -1.73579172249216
  C   0.44432272113341      0.25217003938121     -2.27484705194498
  H   -1.69486487319475      0.77545192844435     -2.34653683276104
  C   1.55120798048503      0.26094821366761     -1.43909225532216
  C   2.73357252240977     -0.01654196200591     -2.17787717078313
  S   0.84129388740075     -0.03783445299803     -3.90840557382825
  C   2.49875542778517     -0.18756650662172     -3.51054135478538
  H   1.63475160055196      1.22288547524759     -0.55977058049885
  H   3.72597756080292     -0.03047616232652     -1.75136656589679
  H   3.22127366549972     -0.37490918178203     -4.29043595094934
  H   -0.70220563939157     -3.23643732689114     -0.23917524045914
  H   -0.95004538906086     -2.40372930981565      2.34270083208581
  H   1.46279843370198     -1.53117489293388      3.14613166855690
  O   1.67701602495477      2.29220890228780      0.20318948559774
  O   0.53707889680289      0.99259800205553      1.60690232014312
  C   1.08856896923536      2.09475610111057      1.28192218811802
  C   1.03629083284768      3.19654192328885      2.29767504578081
  H   0.95383376084140      4.16467825656879      1.80953696074819
  H   1.96928638819697      3.19787387918784      2.86426895354927
  H   0.21751645785771      3.05841179614203      2.99857914197245
  H   3.20977033145131     -1.88896707273133      1.14702919496832
  H   1.84710884431491     -2.90636722521778     -0.96930803089404
