39
Coordinates from ORCA-job reaction4-IEIP_ts_guess_scan_6-0_orca
  Ir  0.61386700927227     -0.70649360650292      0.42098806039251
  C   0.06795212494227     -2.79903601906313      0.33842672441056
  C   0.12430378986349     -2.34069453172833      1.70265424487227
  C   2.22366606126883     -2.10957028096988      0.77795193567801
  C   1.34198892170562     -2.63876168378471     -0.23766121255244
  C   1.48004732885968     -1.96020160137092      1.96435817015202
  N   -1.04748657129901      0.16768251488910     -0.52932705213793
  C   -2.31081604592372      0.48247477367700      0.15449296682630
  C   -3.11306384741962      1.57926700454902     -0.52718093896067
  H   -3.93637017615660      1.86988325477441      0.12396219974813
  H   -3.56147666550025      1.25675728453264     -1.46822226697902
  H   -2.51301856120217      2.47134447561748     -0.70903127768150
  C   -3.12753632636878     -0.79310125582353      0.32382936320850
  H   -2.00961631478195      0.83648234047214      1.14153304110961
  H   -4.03357130453976     -0.57437503967252      0.88689413103312
  H   -3.42582176974826     -1.20393683630338     -0.64156561106849
  H   -2.58093286934819     -1.55829062038815      0.87313936230673
  C   -0.86614230137945      0.38264254631924     -1.77483675168783
  C   0.47971842892561      0.15452025552644     -2.24842388031378
  H   -1.65183603979923      0.74975071882124     -2.42838451429448
  C   1.56712814032925      0.39942734338406     -1.41128147605615
  C   2.77996619954971     -0.00240051880002     -2.04697899670385
  S   0.92638747033766     -0.53007723436215     -3.73826510952106
  C   2.58563717489212     -0.51672711242817     -3.28926283938051
  H   1.52165484982516      1.31527720109330     -0.67864477487618
  H   3.75909887946811      0.13728348680152     -1.61241777191853
  H   3.32966920953485     -0.86833939036604     -3.98790018420905
  H   -0.81031434562834     -3.17322693244878     -0.16780462577926
  H   -0.67667251437203     -2.36985107517304      2.42629747914912
  H   1.84821538155130     -1.55047934848337      2.89402678158234
  O   1.31285318582471      2.48385042927656      0.23832767659717
  O   0.53500405636667      0.92871242764925      1.63437437223061
  C   0.90586021848980      2.13043069929842      1.34194716644407
  C   0.83969643000752      3.09982873568821      2.48968984000920
  H   0.80119399741322      4.12334269658213      2.12704330638476
  H   1.74034935518861      2.99388278546732      3.09756386472744
  H   -0.01143228774623      2.90131139312391      3.13779704507477
  H   3.27298151831514     -1.88690504827716      0.65559363680008
  H   1.61823825928198     -2.88249427159715     -1.25296199461656
