39
Coordinates from ORCA-job reaction4-IEIP_ts_guess_scan_14-9_orca
  Ir  0.61885738547338     -0.74338831032170      0.38384915477278
  C   0.19180801806735     -2.86512725448049      0.31407806228342
  C   -0.11517330085393     -2.44716104696716      1.66045909369880
  C   2.12593067706844     -2.03929165189099      1.26767396076597
  C   1.57624896976052     -2.65551740490857      0.09925052793275
  C   1.06831056076979     -1.95419332998774      2.22958835957392
  N   -1.08663151211178      0.10196410209508     -0.50534162316792
  C   -2.35199388275046      0.27162347813815      0.22264572847338
  C   -3.13563901699312      1.50931836923929     -0.18966141992743
  H   -3.96478205961869      1.64779158628316      0.50234542675713
  H   -3.57206081439402      1.42458320542576     -1.18581898706966
  H   -2.52231648323544      2.40984489374524     -0.15099958023701
  C   -3.18780343765274     -0.99548420436909      0.07791448551666
  H   -2.06420802971457      0.38659737506755      1.26885142520551
  H   -4.08252915740410     -0.92441520372691      0.69514447442375
  H   -3.50560200199995     -1.13943061586909     -0.95552414610538
  H   -2.64080844837664     -1.88381472603426      0.38995864956014
  C   -0.94601095565142      0.49503461015199     -1.71902387127923
  C   0.36806575160518      0.31855098264796     -2.25260813554448
  H   -1.75427602504077      0.95269524919629     -2.27945326048345
  C   1.36378590729866     -0.04048706297214     -1.33400163229155
  C   2.59823541221317     -0.23902588789756     -2.03898893359112
  S   0.91340169630480      0.43520362223703     -3.85287261034652
  C   2.49639014432650     -0.01204103110988     -3.37771071311707
  H   1.61930947197802      1.17502471658921     -0.75474825448034
  H   3.53500684620012     -0.48253279151536     -1.55844314448134
  H   3.28168126053078     -0.06528377308810     -4.11645868119547
  H   -0.48926952337388     -3.33250460166475     -0.38183790725552
  H   -1.07366490465778     -2.51661447062523      2.15138775477789
  H   1.15437478104905     -1.51114480633541      3.21151339273654
  O   1.73321207708991      2.33075815969422     -0.02528082631260
  O   0.63431354057260      1.05247149363604      1.43131636183156
  C   1.17606058517983      2.13941404308527      1.08110026550533
  C   1.17299491352585      3.26393407873593      2.07362011872013
  H   1.06704337577333      4.22272063332448      1.57170096530174
  H   2.13146969645440      3.27527931596984      2.59566987506798
  H   0.38669571278043      3.13820752921070      2.81250033916449
  H   3.16334920701776     -1.79940758122068      1.44202579169235
  H   2.11559361278940     -2.90496167948805     -0.80308027687612
