39
Coordinates from ORCA-job reaction4-IEIP_ts_guess_scan_6-4_orca
  Ir  0.60706604970947     -0.71426560616591      0.44379260395146
  C   0.05941727899465     -2.80601166005604      0.35925941226005
  C   0.09006714498963     -2.34544185842948      1.72299390316121
  C   2.20805694972825     -2.11865126944057      0.83789483472356
  C   1.34471796708802     -2.64827370461196     -0.19280223409193
  C   1.44064084567924     -1.96523573339020      2.00905712439091
  N   -1.04565704359626      0.15429215234091     -0.52454259497828
  C   -2.31530560908986      0.45157207775492      0.15711015158419
  C   -3.11378330257849      1.56496694859204     -0.50251733752212
  H   -3.93979645559751      1.84116446431736      0.15145154822365
  H   -3.55817296544804      1.26442587865305     -1.45257782883437
  H   -2.51209634420771      2.46019435422982     -0.66167665317161
  C   -3.13447953733281     -0.82708223294585      0.28858916168569
  H   -2.02325340915449      0.78162257773730      1.15517324676672
  H   -4.04591638885397     -0.62169791875880      0.84808100991787
  H   -3.42368120511342     -1.21469062622129     -0.68910202880424
  H   -2.59347098756010     -1.60577061930785      0.82406126595188
  C   -0.86703152145613      0.38485280129839     -1.76931515717753
  C   0.47447842527226      0.18062033931554     -2.25733494941318
  H   -1.66139887456035      0.75040776372315     -2.41320017368422
  C   1.56027405603875      0.36448206137866     -1.40463309172759
  C   2.77109187748941     -0.00477605701575     -2.06070372054427
  S   0.92092811421880     -0.40021579458478     -3.79158265041839
  C   2.57666448325279     -0.42984862182340     -3.33772201335816
  H   1.52849104307596      1.29245564375196     -0.64130303790023
  H   3.75058200651482      0.09555360179600     -1.61618436981539
  H   3.32117012202874     -0.73796446110984     -4.05614978995732
  H   -0.80882581170157     -3.18112641606796     -0.16328848658732
  H   -0.72447215494579     -2.37333643259375      2.43131480350991
  H   1.79141620583926     -1.55436626174673      2.94496647146363
  O   1.38169645398146      2.44093918642837      0.21966945659776
  O   0.53434358141066      0.94261320331696      1.63531454475867
  C   0.94284476609915      2.12338595767780      1.32633901678678
  C   0.88607939825895      3.12615571357745      2.44389911904992
  H   0.86440982695533      4.13957025315368      2.05263815513316
  H   1.78329164478489      3.02407252369654      3.05752338916292
  H   0.02954838624733      2.95717006418324      3.09294900248030
  H   3.26018812727835     -1.89921745473027      0.73591784595832
  H   1.63924680626032     -2.89335482792269     -1.20261992953242
