39
Coordinates from ORCA-job reaction4-IEIP_ts_guess_scan_5-9_orca
  Ir  0.60171914581210     -0.72977096075600      0.48009841434448
  C   0.07768080725722     -2.82359224851183      0.36193350759671
  C   0.01622505395119     -2.36203537018363      1.72521016302393
  C   2.18776629281521     -2.11896732521721      0.98127511550058
  C   1.39637617538808     -2.65566831947030     -0.10135005635659
  C   1.34101641421073     -1.97204847911033      2.09852235860270
  N   -1.04046760765524      0.13158622931653     -0.50673120505187
  C   -2.31711602722164      0.40334120231327      0.17517900607747
  C   -3.09413722440456      1.56419987493918     -0.42767366164528
  H   -3.92351958866192      1.81453721356472      0.23239567360482
  H   -3.53157207679585      1.32382133570475     -1.39760264190459
  H   -2.47801486860877      2.45762890580664     -0.53099315494719
  C   -3.15297153073544     -0.87068071646573      0.21714179068263
  H   -2.03846824071470      0.67175278788486      1.19518103963298
  H   -4.06511659023205     -0.69478763710383      0.78564156526588
  H   -3.44143289271566     -1.18690476684069     -0.78616816270468
  H   -2.62271409130356     -1.69182118447955      0.69716891639769
  C   -0.87146285285875      0.37698639139949     -1.75158283868475
  C   0.46041741980439      0.20020032830665     -2.26842707892317
  H   -1.68058518176228      0.73787265950539     -2.38000407714186
  C   1.56024560545962      0.33247599317481     -1.42895660840536
  C   2.75723919558426      0.00452973343480     -2.12609654065522
  S   0.87937811261179     -0.26943580920782     -3.85126009969959
  C   2.53969719461717     -0.32993932521751     -3.42811880895826
  H   1.55488977435185      1.27223031154175     -0.61215325341517
  H   3.74515635508736      0.07021336623336     -1.69399389126230
  H   3.27288894124981     -0.58831004733248     -4.17714808127293
  H   -0.74980438894133     -3.20969179760711     -0.21566400553518
  H   -0.84167776861063     -2.39844964144304      2.38001965730737
  H   1.62513798830801     -1.55695413646561      3.05515152850290
  O   1.47865528609867      2.38124613000535      0.19102078775456
  O   0.54550535447720      0.96055741883662      1.63145544255477
  C   0.99701093377198      2.11328685394799      1.29898461554173
  C   0.94595376644999      3.16228031257710      2.37149377103307
  H   0.90416698224907      4.15773067800425      1.93757648856881
  H   1.85754268869451      3.09979728698576      2.96902955936000
  H   0.10389818641717      3.00940099074697      3.04238464302258
  H   3.24346044355448     -1.89612513726036      0.94998145554305
  H   1.75640280300053     -2.89130305155718     -1.09218121335472
