39
Coordinates from ORCA-job reaction4-IEIP_ts_guess_scan_11-14_orca
  Ir  0.60684352524471     -0.74922859378650      0.42992157365576
  C   0.14673157617413     -2.85768156755645      0.35798826979653
  C   -0.13092600272133     -2.40774284276596      1.69865094259582
  C   2.11695569263279     -2.06526560373558      1.26915842184037
  C   1.52776736049162     -2.67038465546056      0.11073369478761
  C   1.08231339878330     -1.93732824445405      2.24278973181488
  N   -1.07575299894582      0.09524012877850     -0.50527189263860
  C   -2.35428605644896      0.26693333477278      0.20192249321622
  C   -3.14182411682976      1.49186466822749     -0.24138828098473
  H   -3.97766797778893      1.63856467888086      0.44080343680864
  H   -3.56920834057583      1.38506516317396     -1.23928434298596
  H   -2.53465994058946      2.39701636884436     -0.21524546450239
  C   -3.18130013419319     -1.00666846967205      0.06784088145288
  H   -2.08391930508160      0.40291416248039      1.25025549554027
  H   -4.09012702604756     -0.92599120100940      0.66295006580079
  H   -3.47495774047804     -1.17618293808968     -0.96887656348239
  H   -2.63887521866703     -1.88535367969010      0.41328442429369
  C   -0.92557112493607      0.47580138801440     -1.72165390284193
  C   0.38783574047361      0.32133067574428     -2.26599940772715
  H   -1.73958387162107      0.91463509509685     -2.28974762491700
  C   1.41924775009987      0.01218251707598     -1.38420878049493
  C   2.63295911069806     -0.18258449157985     -2.10708464186458
  S   0.88421273279945      0.40425348767366     -3.89063027973467
  C   2.48724919482465      0.00514496598598     -3.45073443431454
  H   1.66465054962486      1.19868862402296     -0.64512299423450
  H   3.58664150789115     -0.40029962395862     -1.64827764837495
  H   3.25166787235053     -0.05612897815894     -4.21050968651856
  H   -0.55893333659167     -3.30699936641304     -0.32532204243840
  H   -1.07869863121660     -2.45810893744267      2.21228689668722
  H   1.19636508102680     -1.48597288764831      3.21825403066611
  O   1.78693069082415      2.28614989165073      0.05664302335140
  O   0.59998654243888      1.05042115511760      1.47786287331836
  C   1.18294284636171      2.11791507608735      1.14738720852031
  C   1.18098335570242      3.25350888001760      2.12420665861578
  H   1.05140355119339      4.20329034921436      1.60999273262981
  H   2.14930789930019      3.28944018998680      2.62642503410997
  H   0.40906139643105      3.12714838182472      2.87758083779844
  H   3.16125951163368     -1.83763879391400      1.41648221527978
  H   2.04234483573193     -2.92875830733585     -0.80332293452537
