39
Coordinates from ORCA-job reaction4-IEIP_ts_guess_scan_8-0_orca
  Ir  0.62418709693399     -0.70552925562172      0.41760779351772
  C   0.08958353894489     -2.80776875749095      0.34124599684439
  C   0.09383132612281     -2.34521580977901      1.70359090791481
  C   2.22476831260708     -2.09972442045858      0.85175799005812
  C   1.38375427257360     -2.64424583508299     -0.18889469127842
  C   1.43249193794433     -1.94736800902915      2.00856751048820
  N   -1.04567069339129      0.15610805120044     -0.52877619090935
  C   -2.30739515062169      0.44969127369622      0.16768553956353
  C   -3.09946760157359      1.58503071931197     -0.46179679216315
  H   -3.91998439957258      1.85316496441631      0.20232232979721
  H   -3.55049839678755      1.30955896447311     -1.41622913585501
  H   -2.49008591649429      2.47796055169997     -0.60330999597429
  C   -3.13549788755454     -0.82577886804071      0.27386208459223
  H   -2.00567741637470      0.75321736695406      1.17106670056685
  H   -4.03790075331542     -0.62955850880436      0.85099271815307
  H   -3.44017738953396     -1.18333152591365     -0.71053656030796
  H   -2.59276029782482     -1.62347511223684      0.77884772605023
  C   -0.87978414566234      0.39132623770443     -1.77453261490853
  C   0.45802030935716      0.17536408417350     -2.26540655357252
  H   -1.67545610546409      0.76697545285658     -2.41053391184078
  C   1.53382882519602      0.30360248802302     -1.38486245883884
  C   2.74920827875297     -0.06152684966715     -2.04055893287624
  S   0.91443034765214     -0.36908055423451     -3.80533418300591
  C   2.56470260098682     -0.44267769257134     -3.33170479990714
  H   1.52206503744440      1.24841204186535     -0.66554715698624
  H   3.72431496268516      0.01044174927454     -1.58121336918699
  H   3.31288874520942     -0.74055847597708     -4.05055509147574
  H   -0.76574286458409     -3.19446145082953     -0.19399009007513
  H   -0.73266566597088     -2.37549065927254      2.39763664337550
  H   1.76259816815912     -1.52703720386423      2.94784911184454
  O   1.36624757953339      2.46192575784872      0.20226928529362
  O   0.53926000485064      0.94903242974452      1.61407944149677
  C   0.93418642326129      2.13622570224019      1.30728327654243
  C   0.86545004739928      3.13315314068570      2.43052399535748
  H   0.83538506503534      4.14828536607549      2.04426794004819
  H   1.76198677363545      3.03617674966468      3.04585945073985
  H   0.00887273052508      2.95349515603626      3.07670615723932
  H   3.27865781835543     -1.88042552738694      0.77156769885926
  H   1.69741451156001     -2.89670378168380     -1.19106768918108
