39
Coordinates from ORCA-job reaction4-IEIP_ts_guess_scan_10-0_orca
  Ir  0.63149708651336     -0.70952942014555      0.40655874886879
  C   0.10331408328319     -2.81897807416074      0.34301189927658
  C   0.06965703623094     -2.35838069442033      1.70398082174112
  C   2.22140579820937     -2.09650310286009      0.90435001010426
  C   1.41221641278391     -2.65376008098080     -0.15284899277454
  C   1.39206989816811     -1.94314305464149      2.03822859996002
  N   -1.04751064365546      0.14686644747138     -0.52958272804546
  C   -2.30626907679605      0.42474453741926      0.17808515909622
  C   -3.09508879071404      1.58310749717523     -0.41318207485068
  H   -3.91351845327230      1.83245135930866      0.26072468315461
  H   -3.54842092089258      1.33984584675046     -1.37514491719034
  H   -2.48255572724701      2.47775429560120     -0.52731998710538
  C   -3.14049944399380     -0.84971282595960      0.24480063172566
  H   -2.00199753099104      0.69508558708479      1.19010225670996
  H   -4.03767021291169     -0.67030582376196      0.83547447389806
  H   -3.45402267264825     -1.16986380107587     -0.74962777621333
  H   -2.59745834371392     -1.66790487040237      0.71536896213712
  C   -0.89076348912280      0.40481641782469     -1.77341156199219
  C   0.44213886868543      0.19383209547644     -2.27192958152193
  H   -1.68972255864502      0.79533692858777     -2.39579731862143
  C   1.49931371969504      0.21721177910070     -1.35501643422080
  C   2.72230649199340     -0.11067600565495     -2.02275295445610
  S   0.91900270063165     -0.21752712907253     -3.84260775579213
  C   2.55792448720425     -0.36802937252913     -3.34633112247105
  H   1.52194091639602      1.20426722892378     -0.66847504203701
  H   3.68974559503474     -0.09997517925268     -1.54200445996249
  H   3.31502459389608     -0.61385056932041     -4.07537196952358
  H   -0.73419936226595     -3.21475226003448     -0.21332003949690
  H   -0.77530231430274     -2.38907281111028      2.37509072732714
  H   1.69360092811135     -1.51372022136094      2.98308034369977
  O   1.40797013496900      2.44875607214259      0.16113822832089
  O   0.55000272465776      0.96570773027338      1.58474423419256
  C   0.95936348140498      2.14158567329591      1.26774181728053
  C   0.89107860101919      3.15939804423219      2.37197828464331
  H   0.86382674555778      4.16767270441807      1.96796306124938
  H   1.78682878447586      3.07123913282750      2.98968361628422
  H   0.03298698448856      2.99227570026702      3.01931300508961
  H   3.27822122603225     -1.88252373647404      0.85802713225183
  H   1.75293228173045     -2.91455611496278     -1.14398185073632
