39
Coordinates from ORCA-job reaction4-IEIP_ts_guess_scan_7-2_orca
  Ir  0.61508327105593     -0.70971426381347      0.42962605428503
  C   0.07035468582416     -2.80543839972546      0.35290806987887
  C   0.09601985710343     -2.34356918097104      1.71566479054949
  C   2.21599013772495     -2.11131610500292      0.83519181052426
  C   1.35723734392778     -2.64699291015480     -0.19592183098424
  C   1.44319889768375     -1.95644475525632      2.00349323253541
  N   -1.04612279271068      0.15635648771159     -0.52808631955538
  C   -2.31205354361582      0.45272529833868      0.16013129506934
  C   -3.10989680004893      1.57237688474351     -0.48957258271488
  H   -3.93344836098915      1.84595820174352      0.16857385382678
  H   -3.55751260500895      1.27901115736639     -1.44034617972610
  H   -2.50645640122495      2.46718934069443     -0.64429537800060
  C   -3.13333327726514     -0.82525069755748      0.28588034716600
  H   -2.01516555118990      0.77502479125948      1.15921430893983
  H   -4.04108678561560     -0.62242245201280      0.85224042166947
  H   -3.42884398129671     -1.20437597944458     -0.69323362361366
  H   -2.59055059868438     -1.60927072341786      0.81169358089352
  C   -0.87252616327911      0.38923700294666     -1.77309767231847
  C   0.46793514613933      0.17878433298555     -2.26055939383302
  H   -1.66658874551680      0.75980829698588     -2.41426477274368
  C   1.54800169882050      0.33788188094691     -1.39306578099004
  C   2.76188048988803     -0.03111896575339     -2.04633489526346
  S   0.92119471412629     -0.38859306331252     -3.79538296613735
  C   2.57393064801969     -0.43801356963845     -3.32963838944871
  H   1.52453884987084      1.27400059776713     -0.65258498404595
  H   3.73864227547954      0.05667579495491     -1.59325386448707
  H   3.32101806517999     -0.74286318389206     -4.04674015990939
  H   -0.79520931550851     -3.18443965227189     -0.17128232825241
  H   -0.72070362362186     -2.37095088199538      2.42138510810245
  H   1.78978062574340     -1.54121050491213      2.93905168735466
  O   1.37157642571868      2.45371728081490      0.21342488504624
  O   0.53557447624553      0.94522834094084      1.62484891172892
  C   0.93686115157195      2.12992206920184      1.31890841817925
  C   0.87528152488210      3.12740283909164      2.44152383013101
  H   0.85392142096428      4.14266799233898      2.05511231870576
  H   1.77014399752084      3.02297874427883      3.05812779103942
  H   0.01650792375466      2.95466835690753      3.08669349354319
  H   3.26879776578339     -1.89322763878867      0.73807761446401
  H   1.65539718254742     -2.89721278409796     -1.20337061160846
