39
Coordinates from ORCA-job reaction4-IEIP_ts_guess_scan_5-1_orca
  Ir  0.60710037022346     -0.71005279565308      0.43029925580556
  C   0.05943741736620     -2.79942700771579      0.33933707710099
  C   0.12275042471391     -2.34289329731678      1.70468561952398
  C   2.21816694930432     -2.11521592498159      0.77230466622355
  C   1.33082641147662     -2.63880961279611     -0.24153883056044
  C   1.48187770726192     -1.96865192811540      1.96276102617418
  N   -1.04724570118570      0.16865400130538     -0.52705841040771
  C   -2.31261934766495      0.48750011504531      0.15143938832950
  C   -3.11792301758217      1.57305994321175     -0.54435176128125
  H   -3.94297014572488      1.86842992486042      0.10243490310212
  H   -3.56417458145001      1.23786264699910     -1.48201808027754
  H   -2.52124069229659      2.46532833232007     -0.73620814919506
  C   -3.12587647396961     -0.78804469498573      0.33604756570071
  H   -2.01368064173509      0.85510201741228      1.13426776369794
  H   -4.03390922871072     -0.56428999575330      0.89388550072139
  H   -3.42080364165115     -1.21266958205691     -0.62441401681366
  H   -2.57898559964818     -1.54430722169456      0.89732965124210
  C   -0.86009343956417      0.38063048544520     -1.77200587371519
  C   0.48746872301116      0.15347013744910     -2.24360873800688
  H   -1.64408865106926      0.74509306622064     -2.42924237141213
  C   1.57993761648652      0.43068048187224     -1.42548842608856
  C   2.79025166282216      0.02295370322428     -2.06048329981590
  S   0.92795455311604     -0.56078976773073     -3.72378413521481
  C   2.59019581934103     -0.52215202708823     -3.28893042891682
  H   1.52536953301089      1.33506445171083     -0.67794481146157
  H   3.77165664376240      0.18026084375670     -1.63721989664851
  H   3.33190251780440     -0.88398264152461     -3.98483835893026
  H   -0.82207068611256     -3.17017542770453     -0.16377848414223
  H   -0.67482939723324     -2.37329496119628      2.43214396056724
  H   1.85535054282375     -1.56340936612344      2.89226295544282
  O   1.31105803876623      2.47813311258707      0.24661539376099
  O   0.53418521001007      0.92310533352932      1.64375276163131
  C   0.90558040298006      2.12497475210271      1.35074989329564
  C   0.84185173700722      3.09376372061730      2.49896066823539
  H   0.80343052370099      4.11739517086275      2.13663353942818
  H   1.74338754602041      2.98713708817664      3.10543087919655
  H   -0.00832643175830      2.89565482837476      3.14845353890249
  H   3.26627789139279     -1.89022544310597      0.64345901960344
  H   1.60218946495406     -2.87667250154082     -1.25960089479757
