39
Coordinates from ORCA-job reaction4-IEIP_ts_guess_scan_9-4_orca
  Ir  0.62481586901133     -0.71640612699337      0.43111598768174
  C   0.10869140723486     -2.82396022633640      0.34206072159824
  C   0.02839324483905     -2.36342227104218      1.70257612695071
  C   2.20611562344004     -2.09686134024922      0.97700380379382
  C   1.43341709577717     -2.65355105356902     -0.10693531449952
  C   1.33848736744859     -1.94874055145442      2.08268572870843
  N   -1.04700524280508      0.13581461255519     -0.51801871947055
  C   -2.31201265141035      0.39900247001069      0.18565253845458
  C   -3.09462036177014      1.57290308070750     -0.38422074425251
  H   -3.91665444579044      1.80897977900970      0.29004782400465
  H   -3.54228844487729      1.35301901501916     -1.35434480760192
  H   -2.47920881896041      2.46822450824490     -0.47486237713107
  C   -3.15013517264754     -0.87426569045307      0.21340303533564
  H   -2.01789831514195      0.64629059464036      1.20652567946933
  H   -4.05182720613003     -0.70919233352134      0.80149352014636
  H   -3.45652648355937     -1.16702096351662     -0.79168155339935
  H   -2.61302621662154     -1.70696154242643      0.66496077647504
  C   -0.89190520798004      0.40163163588742     -1.76115284019286
  C   0.43682698371650      0.20763423730595     -2.27362970360932
  H   -1.69832699436340      0.78738831081742     -2.37717633466084
  C   1.50471812721065      0.21356964250948     -1.37553239014486
  C   2.71885650105718     -0.09530030014320     -2.06104682588815
  S   0.89738806828945     -0.15438255658750     -3.86533819112231
  C   2.53932237165245     -0.31338901131977     -3.39157596897315
  H   1.53961861765954      1.19806230939316     -0.64014354224935
  H   3.69171949608576     -0.09887460652100     -1.59141252062743
  H   3.28994683295303     -0.53632484240769     -4.13456023863197
  H   -0.70756599186885     -3.22324553846696     -0.24252179156136
  H   -0.83706856650813     -2.40095893536223      2.34678870237222
  H   1.60689509485353     -1.52106369600437      3.03834037159359
  O   1.48069526348772      2.39990863716112      0.15605377997757
  O   0.55202141742589      0.97392993518654      1.59181519052556
  C   0.99733573035719      2.12970361680871      1.26136659530889
  C   0.93367836313527      3.17828603299699      2.33502913759833
  H   0.90571697876656      4.17473292610146      1.90244445322287
  H   1.83303681518856      3.10810234942435      2.94978112893152
  H   0.07820437714826      3.02947280218851      2.98982063947994
  H   3.26293202057532     -1.87850582861851      0.96476994517807
  H   1.80660650312066     -2.90503909097532     -1.08884170279058
