39
Coordinates from ORCA-job reaction4-IEIP_ts_guess_scan_0-9_orca
  Ir  0.56467039475040     -0.74045469818952      0.50390139813322
  C   0.00808784941645     -2.81594070014609      0.36382746799768
  C   0.08847415950534     -2.37855665568598      1.73705636475592
  C   2.17552963716356     -2.15641281026529      0.79354190265488
  C   1.27384678452105     -2.64859445952903     -0.22430921000212
  C   1.45793106344134     -2.03019487309722      1.99473723718577
  N   -1.04036295263199      0.16055187929309     -0.50599194502694
  C   -2.32034641689325      0.49218594663240      0.14126258945660
  C   -3.13076158718002      1.53606805207589     -0.61022139685441
  H   -3.96747969351758      1.84698994042743      0.01379536570157
  H   -3.56058820338206      1.15490211216121     -1.53792679381142
  H   -2.54498473928060      2.42827427507734     -0.83371887215838
  C   -3.12409527255831     -0.78137179236525      0.37280629314559
  H   -2.04020326794899      0.90780780374793      1.11084838267891
  H   -4.04625198650072     -0.54039395848446      0.89944034097442
  H   -3.39473724027590     -1.25636086843281     -0.57116815707733
  H   -2.58408968094480     -1.50316008199195      0.98405647820040
  C   -0.82503484308889      0.36388155142114     -1.74865335713069
  C   0.52686476416708      0.15861688676197     -2.22087729332193
  H   -1.60627025867269      0.71348005980746     -2.41799293961857
  C   1.63658102681674      0.54922129453221     -1.48299151948975
  C   2.83349784068463      0.15474367352043     -2.14541734147197
  S   0.93756864044949     -0.60826233721322     -3.69530045424251
  C   2.60941316883998     -0.46718416128183     -3.33454536895659
  H   1.54423065073281      1.41753536459791     -0.64699758325145
  H   3.82460323270833      0.37472305765842     -1.77580215308202
  H   3.34069322781718     -0.83492598703886     -4.03852696305448
  H   -0.88194929855969     -3.16917443185696     -0.13679342493321
  H   -0.70278955547682     -2.41739487467272      2.47148071096342
  H   1.84508311769315     -1.65172372355095      2.92983001702926
  O   1.33396402374339      2.42187359158686      0.26289745737152
  O   0.53893411389052      0.90492857094260      1.69351541146923
  C   0.92581041740881      2.09418410914548      1.37712370854386
  C   0.88030836764455      3.08899372938642      2.50148376793547
  H   0.83712698144520      4.10380314286903      2.11551384423602
  H   1.79201445334019      2.99646618194324      3.09505262812756
  H   0.04066396273096      2.90629802308350      3.16865627721780
  H   3.22009408652069     -1.92232354407226      0.65004572725680
  H   1.53332303148046     -2.85390926879758     -1.25289849755211
