39
Coordinates from ORCA-job reaction4-IEIP_ts_guess_scan_7-0_orca
  Ir  0.61883832728158     -0.70571147954002      0.41850781109817
  C   0.07569258562891     -2.80186947284047      0.34167961435852
  C   0.11420646802896     -2.34193332288405      1.70501465710634
  C   2.22476705403627     -2.10609777745528      0.80442444584613
  C   1.35689159177834     -2.64145092039887     -0.21938996176360
  C   1.46387050477498     -1.95412776026495      1.98067858753718
  N   -1.04674752857819      0.16290820932506     -0.52970728973795
  C   -2.30940157878367      0.46876750806955      0.15948701496825
  C   -3.10742929846581      1.58189638017836     -0.50066983530994
  H   -3.92967610353242      1.86313421769995      0.15589347889886
  H   -3.55690555755311      1.27896498325308     -1.44760862616345
  H   -2.50352812524821      2.47461413592239     -0.66553014279257
  C   -3.13078448304695     -0.80724151652530      0.30247883012671
  H   -2.00794201036192      0.80165884000683      1.15369778435410
  H   -4.03555639450819     -0.59759965603580      0.87104747322135
  H   -3.43123734395118     -1.19642527185888     -0.67116659768386
  H   -2.58583253704107     -1.58586597856936      0.83417555873329
  C   -0.87218494961509      0.38612301459103     -1.77544774029441
  C   0.47045816225375      0.16318049536908     -2.25576234260673
  H   -1.66190782179674      0.75669396035858     -2.42195895598634
  C   1.55195940192472      0.35610967712676     -1.39582977426998
  C   2.76668753105972     -0.02946689599864     -2.03948640116867
  S   0.92278673842035     -0.46008311836790     -3.76832918135790
  C   2.57802526862395     -0.48514109674129     -3.30537971529168
  H   1.52047506182854      1.28646943583844     -0.67113066255867
  H   3.74359680351270      0.08042453872433     -1.59157248788853
  H   3.32443017999394     -0.81291439524808     -4.01300464974678
  H   -0.79488917832965     -3.18040847920965     -0.17449040000277
  H   -0.69575676273240     -2.37049012717526      2.41846549910290
  H   1.81906807243581     -1.53970694133058      2.91333934965920
  O   1.33333459072469      2.47652888247989      0.22259019288242
  O   0.53602748462300      0.93788320606619      1.62484338206073
  C   0.91639616438916      2.13369063348061      1.32701956079142
  C   0.84971664405631      3.11416010670941      2.46506030367894
  H   0.81652275693326      4.13451677720831      2.09313711271834
  H   1.74791851808847      3.01009144322778      3.07684439414421
  H   -0.00455535531696      2.92438121408421      3.11156239540392
  H   3.27619584204798     -1.88605050079639      0.69709370510337
  H   1.64583932641616     -2.89042298847907     -1.22983628717050
