39
Coordinates from ORCA-job reaction4-IEIP_ts_guess_scan_5-11_orca
  Ir  0.60058774540216     -0.73650909233051      0.49154206974999
  C   0.09057210814775     -2.83214418046089      0.36153681513795
  C   -0.02213236541039     -2.37066359686561      1.72186361137361
  C   2.17481399188115     -2.11608465117976      1.05628308053829
  C   1.42566840412601     -2.65940728095313     -0.05160880365537
  C   1.28455273464432     -1.97117003573854      2.14087919641884
  N   -1.04008282650254      0.12202378909118     -0.49973007678701
  C   -2.31994161695101      0.37766593134783      0.18314923535704
  C   -3.09197566498185      1.55722601978105     -0.39016600916552
  H   -3.92405219801053      1.79003491220523      0.27289549021363
  H   -3.52494875372070      1.34621950758154     -1.36882720415403
  H   -2.47363289021445      2.45193344150516     -0.46509123832884
  C   -3.15951094945391     -0.89459941164352      0.18300983600221
  H   -2.04766317091978      0.61781909152407      1.21184490524302
  H   -4.07250148656259     -0.73568326908895      0.75526014385844
  H   -3.44665064154187     -1.17701981639536     -0.83072102507484
  H   -2.63220512499908     -1.73312529336470      0.63543407218598
  C   -0.87521127305608      0.38308963992034     -1.74272668732558
  C   0.45105324789303      0.21777918820369     -2.27273371305209
  H   -1.68968492580859      0.74815583868569     -2.36186947937832
  C   1.55556514317810      0.29751449457759     -1.43470971890287
  C   2.74532906163684     -0.00680178823969     -2.15289985753006
  S   0.85777203785026     -0.17255432919056     -3.88125086377669
  C   2.51796609478921     -0.26987991910893     -3.47056538336875
  H   1.58266583407729      1.25281508910734     -0.59522568042223
  H   3.73614494980315      0.02535013738666     -1.72364865889485
  H   3.24528786399265     -0.49579840257008     -4.23563510325337
  H   -0.71231620387927     -3.22522838492626     -0.24519572143167
  H   -0.90231869469697     -2.41100202254846      2.34608734756913
  H   1.53096722197857     -1.55197351242984      3.10621808996185
  O   1.54912591820176      2.34725464158906      0.18216898063926
  O   0.54926085833062      0.97282006724248      1.62207916103655
  C   1.03212875505413      2.10739641047197      1.28424332929353
  C   0.98065407919148      3.18143108125648      2.33065879259616
  H   0.91930360446622      4.16496075363725      1.87206975164093
  H   1.90265241332672      3.14827667060113      2.91432796771380
  H   0.15007904379362      3.03389175611449      3.01636154285527
  H   3.23053814437079     -1.89199696223180      1.06469236056041
  H   1.82150957057378     -2.89282650256364     -1.02926035544377
