39
Coordinates from ORCA-job reaction4-IEIP_ts_guess_scan_8-4_orca
  Ir  0.61918661187253     -0.71462491306845      0.43630278623436
  C   0.09061135674465     -2.81721772261233      0.35182262604128
  C   0.05075121946315     -2.35375833786750      1.71323303590922
  C   2.20845405398180     -2.10415041622013      0.92863299505278
  C   1.40168699196353     -2.65243092817944     -0.13595339148482
  C   1.37688076641970     -1.95142833222957      2.05870985258963
  N   -1.04557999603054      0.14168121296852     -0.52138402357388
  C   -2.31229113199879      0.41608424059956      0.17521067396544
  C   -3.09912023414816      1.57226941172756     -0.42340245114703
  H   -3.92221226953064      1.82186437611285      0.24472198062847
  H   -3.54600465800595      1.32678625859553     -1.38778560055695
  H   -2.48721883772259      2.46756409233379     -0.53566940078268
  C   -3.14485793753147     -0.85960328911869      0.23517112020495
  H   -2.01885032187645      0.68885798287571      1.18982541967154
  H   -4.05000840340976     -0.68102062228939      0.81387172682805
  H   -3.44523485386257     -1.18286923478390     -0.76234087032419
  H   -2.60685840217099     -1.67602532804159      0.71450414444549
  C   -0.88336791589610      0.39449347653144     -1.76568824822026
  C   0.44957533623281      0.19866478313668     -2.27115719037372
  H   -1.68676980041332      0.77213112024474     -2.39079575554261
  C   1.52425664012551      0.26400788352151     -1.38518562946076
  C   2.73697591543292     -0.06554384868075     -2.06141535289480
  S   0.90430863392763     -0.23825672698014     -3.84704446193952
  C   2.55139735634569     -0.35374912735870     -3.37772456751685
  H   1.53416645846779      1.22698339470196     -0.63712298961858
  H   3.71251348179741     -0.03388879902590     -1.59844628519142
  H   3.29964316031554     -0.60569556762427     -4.11384790106389
  H   -0.74539406901975     -3.20840471002139     -0.20995299354659
  H   -0.79670252429826     -2.38642925369869      2.38135041975402
  H   1.67558145387741     -1.52813402492900      3.00723133675510
  O   1.44444897806352      2.41350189184975      0.17894156816036
  O   0.54329874608078      0.96322376733661      1.60875868205903
  C   0.97663559091077      2.12746621847994      1.28531078171955
  C   0.91541340532277      3.16038717881138      2.37436034468898
  H   0.89207570716853      4.16311816080427      1.95640876761201
  H   1.81283207458475      3.07723237097195      2.99041550582934
  H   0.05825597942789      3.00577138044934      3.02581553545382
  H   3.26455789843264     -1.88604184095246      0.88331925553638
  H   1.74633354895559     -2.90362624837080     -1.12826139590127
