39
Coordinates from ORCA-job reaction4-IEIP_ts_guess_scan_9-5_orca
  Ir  0.62260981059791     -0.71998194422293      0.43534857748259
  C   0.12920486588767     -2.83053869228258      0.32715926315928
  C   -0.00408915731925     -2.37442559097629      1.68607726627814
  C   2.19636744682863     -2.08429716710460      1.04007077470126
  C   1.46915477920981     -2.64875258729530     -0.06962335422848
  C   1.28514475758907     -1.94687461973149      2.11356349397050
  N   -1.05130118744794      0.13031478552411     -0.51227319543995
  C   -2.31764242599852      0.38155808882734      0.19362409685245
  C   -3.09815978946520      1.56703201478339     -0.35537297218789
  H   -3.92180769241684      1.79032358110185      0.32125236604293
  H   -3.54330548612138      1.36682088510228     -1.33088117996733
  H   -2.48190806739574      2.46346959567906     -0.42703621204000
  C   -3.15721575843750     -0.89112639901861      0.19337357416780
  H   -2.02666975873280      0.60967123428783      1.21982420571686
  H   -4.05720480354158     -0.74006291418467      0.78786470421522
  H   -3.46650464575586     -1.15907296014792     -0.81772655941370
  H   -2.61943440409688     -1.73552128904930      0.62180433591514
  C   -0.89986720115959      0.40805626586725     -1.75335289654549
  C   0.42537362029157      0.21916941264504     -2.27455505432624
  H   -1.70947648101005      0.79775507602807     -2.36272696333981
  C   1.49672414185404      0.19485397049523     -1.38180873357851
  C   2.70571574555009     -0.10365772942158     -2.08047562020451
  S   0.87749139185780     -0.09905154295660     -3.87830609711171
  C   2.51958401548911     -0.28150932986424     -3.41641736433130
  H   1.55983975569407      1.18334805753971     -0.63553995806432
  H   3.68041005334117     -0.12745422060774     -1.61523081938409
  H   3.26590586805256     -0.48765426307784     -4.16851661816528
  H   -0.66034437612960     -3.23899118608794     -0.28686472233258
  H   -0.89166062797407     -2.42114231235885      2.29881952351524
  H   1.51331501614585     -1.51680176389448      3.07861096180125
  O   1.54758352560302      2.37600290387915      0.15074276604747
  O   0.55541488365283      0.98517764063235      1.57827446457409
  C   1.03211443565580      2.12678410500013      1.24814838007429
  C   0.96851463092335      3.19119179445199      2.30566075867910
  H   0.92392054070240      4.17983054588887      1.85638989482779
  H   1.87758183407065      3.14342323756375      2.90808745755902
  H   0.12301504656073      3.04376316271473      2.97313812467370
  H   3.25151069573879     -1.85989836819884      1.06830616119343
  H   1.87946503170588     -2.89254155753037     -1.03869276078638
