39
Coordinates from ORCA-job reaction4-IEIP_ts_guess_scan_8-2_orca
  Ir  0.62361184710747     -0.71188521824716      0.42804512830444
  C   0.10575847153721     -2.81700924652870      0.33134050609836
  C   0.05998870605270     -2.35866038427922      1.69484897131587
  C   2.21818863117875     -2.09424842035309      0.91761763988268
  C   1.41733422754787     -2.64400169811761     -0.15092698502400
  C   1.38276136549935     -1.95097128617765      2.04625327918186
  N   -1.04568361326448      0.14689008838391     -0.52087666055035
  C   -2.30857947253279      0.42891476522715      0.17900501272865
  C   -3.09165124960221      1.58612489393547     -0.42201065091818
  H   -3.91269106278174      1.84151848969734      0.24647934575595
  H   -3.54101522168480      1.33918538497794     -1.38487535840434
  H   -2.47588923198125      2.47825709745852     -0.53817598516861
  C   -3.14461002510929     -0.84417066468327      0.24586679597572
  H   -2.01021364127655      0.70355184077378      1.19159351437521
  H   -4.04395236585245     -0.66270793585994      0.83258818090693
  H   -3.45455424131993     -1.16657610918247     -0.74897634289355
  H   -2.60434938541872     -1.66205758040124      0.72034589155869
  C   -0.88580996065663      0.39043068577920     -1.76651453352695
  C   0.44793323007299      0.18414523260815     -2.26905286241299
  H   -1.68751234765577      0.76618375553241     -2.39493972740945
  C   1.52594517744838      0.27934919797645     -1.38797875332638
  C   2.73773484991012     -0.06823961637397     -2.05860540534726
  S   0.89847036131041     -0.30432707082177     -3.82975319994469
  C   2.54870608725554     -0.40077189787187     -3.36311264415197
  H   1.52782688691613      1.23404051865158     -0.65695468648760
  H   3.71437007532346     -0.01813767477873     -1.59958644357907
  H   3.29441569224182     -0.67509730509248     -4.09379119917312
  H   -0.72705929987779     -3.21025107226792     -0.23372178817575
  H   -0.78933150369062     -2.39788576956285      2.36029826430185
  H   1.67613403512044     -1.52936545261744      2.99719361431488
  O   1.40763084463111      2.43799349429892      0.18039362383245
  O   0.54672496480278      0.95872452898152      1.60631540993046
  C   0.95907528036302      2.13419604058684      1.28755758560809
  C   0.89380674785122      3.15260466539821      2.39080430161097
  H   0.85467234102647      4.15978742637435      1.98490112144171
  H   1.79720897814735      3.07343899427573      2.99859759925639
  H   0.04419347933579      2.98031593356465      3.04780014096323
  H   3.27348702084303     -1.87150486559072      0.87619205137425
  H   1.76629334118164     -2.88859378567403     -1.14344467222435
