39
Coordinates from ORCA-job reaction4-IEIP_ts_guess_scan_11-8_orca
  Ir  0.61195518311373     -0.73057103285103      0.42330153730263
  C   0.11693174443285     -2.84234141541928      0.36016637032266
  C   -0.06306454793967     -2.38007956336775      1.71111302910999
  C   2.15752512369024     -2.08327786124447      1.13192391136316
  C   1.47432257732439     -2.66992971306286      0.01050302887147
  C   1.20141526958526     -1.93473423920313      2.17116458061556
  N   -1.06664673025597      0.12025557980570     -0.51503589247436
  C   -2.34033007247131      0.32266704185019      0.19197104253730
  C   -3.14252944728556      1.51239984755047     -0.31564598160770
  H   -3.97362258399913      1.69184851882973      0.36454478406729
  H   -3.57840158570509      1.34058907497879     -1.30077514919204
  H   -2.54486340071157      2.42361813807729     -0.34928220033605
  C   -3.15829830871296     -0.96300530210676      0.13791492344420
  H   -2.06060128085582      0.51843289973384      1.22828914090499
  H   -4.06770127028036     -0.84890765591123      0.72650150504236
  H   -3.45096276464497     -1.19950768028915     -0.88586246366974
  H   -2.61185629251195     -1.81379576435333      0.54128509417695
  C   -0.91035867446877      0.47346596021292     -1.73782030656669
  C   0.40926251379551      0.30166344929862     -2.26578049883334
  H   -1.71755524217984      0.90359167061249     -2.32185970508709
  C   1.44707753457070      0.07789350519011     -1.35989001858676
  C   2.66145961616445     -0.16766517680624     -2.07261619041980
  S   0.89799044845059      0.24060231897709     -3.88880787490478
  C   2.51025647575743     -0.10472766821877     -3.42442171733658
  H   1.63004767983930      1.14153123016486     -0.62467234112424
  H   3.61944979823043     -0.32376082943300     -1.59804537301434
  H   3.27121011101708     -0.22256129737621     -4.18089280982841
  H   -0.64626937960397     -3.26795296220724     -0.27497371412973
  H   -0.97146963692618     -2.41990468237345      2.29248198245506
  H   1.39348238743360     -1.48726668310727      3.13621800083158
  O   1.73466375690536      2.30154510628723      0.12607885907785
  O   0.56137763320125      1.02304242321258      1.51899325098699
  C   1.12896160672065      2.11475962782857      1.19899888415500
  C   1.07834021621522      3.22766075529780      2.20405368815546
  H   0.96860738110731      4.18811739486317      1.70570621723002
  H   2.02314897037556      3.25375108155103      2.74964704411385
  H   0.27540030792293      3.08409608622085      2.92156057650816
  H   3.21221032529404     -1.86664911426747      1.20215318677429
  H   1.91880450740528     -2.93570317894469     -0.93744834093518
