39
Coordinates from ORCA-job reaction4-IEIP_ts_guess_scan_0-13_orca
  Ir  0.56010221755522     -0.74953432508292      0.53546342856942
  C   0.00212735678374     -2.82347287628200      0.39938735376437
  C   0.04703897082211     -2.37881622761691      1.77087700291679
  C   2.16037101663450     -2.16690694082627      0.88119601622979
  C   1.28376167016429     -2.66228033378704     -0.15668121936783
  C   1.40962244905987     -2.03032198129052      2.06125554437730
  N   -1.03434403442215      0.13755248284370     -0.49881076593856
  C   -2.32290487018403      0.44846456782507      0.14454989828810
  C   -3.11465694614473      1.53327098997649     -0.56911340002118
  H   -3.95265429073337      1.82885239237183      0.06073945220243
  H   -3.54214042236824      1.19743761180344     -1.51510055271346
  H   -2.51500369768755      2.42552931987094     -0.75117914092935
  C   -3.14073962761814     -0.82724939290257      0.30539826237770
  H   -2.05683125670494      0.81801770177931      1.13648704755326
  H   -4.06992060882939     -0.60322683233822      0.82732406159596
  H   -3.39865606122170     -1.25707007199343     -0.66344733202043
  H   -2.61592702622416     -1.58061874124013      0.89108055220899
  C   -0.82789803764553      0.34814685975967     -1.74392403477877
  C   0.51593327737738      0.17548763963095     -2.23905783943824
  H   -1.62442063879061      0.68462011387084     -2.40210204495283
  C   1.63037797898972      0.49976514109072     -1.47793186528356
  C   2.82093433192813      0.15449635251873     -2.17493118250194
  S   0.91564871124979     -0.46398255966813     -3.77679652835378
  C   2.58765454212322     -0.36192227519875     -3.41366821312801
  H   1.55515084604585      1.39489704035849     -0.60391135315212
  H   3.81592520136351      0.33548246614071     -1.79467476525010
  H   3.31438173022950     -0.67157320014177     -4.14964453824307
  H   -0.87418826540163     -3.17912900814083     -0.12320867410220
  H   -0.76359095132059     -2.41192756961104      2.48403992680780
  H   1.77249421753698     -1.64662211231955      3.00395678228657
  O   1.40495543572786      2.38728512388575      0.24458977787228
  O   0.53976319452061      0.92539596716276      1.69199135447656
  C   0.96424321646910      2.09124776484278      1.36141624236942
  C   0.93265989273323      3.11902621266221      2.45448872054041
  H   0.87257926552651      4.12164418875453      2.03971625796576
  H   1.85955799248698      3.05320498952231      3.02787790602642
  H   0.10956628200795      2.94798950176867      3.14438760070209
  H   3.20973795075565     -1.93938308557751      0.76566778614831
  H   1.56865900720507     -2.87458686442232     -1.17696740510427
