39
Coordinates from ORCA-job reaction4-IEIP_ts_guess_scan_10-4_orca
  Ir  0.62134914660667     -0.71583438119646      0.42424747684799
  C   0.13276594807380     -2.83093355945429      0.33112494577264
  C   -0.01278632672042     -2.37170437632718      1.68743928925596
  C   2.19151264796599     -2.07344644219253      1.05598614422825
  C   1.47629806836391     -2.64843743707609     -0.05498684872032
  C   1.26878889440063     -1.93430072288796      2.12139582550316
  N   -1.05836029908615      0.13257978911492     -0.51575899261866
  C   -2.32542261119123      0.37061252729577      0.19247800399562
  C   -3.11778270112567      1.55117360023508     -0.35016919010014
  H   -3.94249369917568      1.76322923950129      0.32867028671951
  H   -3.56260732350972      1.35059622251254     -1.32580755603322
  H   -2.51056907109213      2.45400266195064     -0.41872923669174
  C   -3.15479581994508     -0.90896476186999      0.18644340741004
  H   -2.03522968877827      0.59618658853156      1.21954319366357
  H   -4.05620884903232     -0.76786172286564      0.78127427965391
  H   -3.46156778152297     -1.17455569825324     -0.82603656249422
  H   -2.61064705531144     -1.75111863429735      0.61092238351110
  C   -0.90677894675146      0.43074675507533     -1.75244443767734
  C   0.41659775466846      0.24196775360179     -2.27417030384115
  H   -1.71494168759051      0.83304923912523     -2.35519024216354
  C   1.47757862495505      0.15603659848111     -1.37069376895631
  C   2.68817090623357     -0.13407180301429     -2.07329748869102
  S   0.87851215123204     -0.01230434117117     -3.88505722235580
  C   2.51215043070483     -0.24675717999770     -3.41741592944769
  H   1.58230500509900      1.15237680008909     -0.63507982811214
  H   3.65804673636041     -0.19569571621015     -1.60144829596095
  H   3.26211804581915     -0.43256496913789     -4.17115522484398
  H   -0.64955284431415     -3.24694554856830     -0.28700371986447
  H   -0.90503365029141     -2.41848707024635      2.29316281432014
  H   1.48691754035690     -1.49696694076828      3.08551349798272
  O   1.62098459540418      2.35726181455212      0.15775856697058
  O   0.55065224620884      0.99798777543418      1.55877137653371
  C   1.06504355824932      2.12560645328210      1.23937387728963
  C   0.99486007320333      3.19865020396973      2.28795688885038
  H   0.97470097955416      4.18424409550754      1.83013251910979
  H   1.89028684674196      3.14243022937285      2.90959283883836
  H   0.13295128793589      3.06919194785615      2.93780148499061
  H   3.24621115201510     -1.84857017988972      1.09409754362223
  H   1.89534575528540     -2.89921884006447     -1.01850170649722
