39
Coordinates from ORCA-job reaction4-IEIP_ts_guess_scan_11-7_orca
  Ir  0.61375408214376     -0.72827889811014      0.42160037485445
  C   0.11734339332324     -2.84078409670094      0.35681485063582
  C   -0.05404324250092     -2.37831538968430      1.70870037322734
  C   2.16311390105312     -2.08342909146524      1.11634276394283
  C   1.47200336863899     -2.66831303619198     -0.00176979464083
  C   1.21445616970692     -1.93475628693280      2.16157534033609
  N   -1.06514051012330      0.12363596434340     -0.51569964487199
  C   -2.33756524034275      0.33085053306408      0.19205550223288
  C   -3.14010712776234      1.51758337528706     -0.32184377238974
  H   -3.97012659338341      1.70157178795817      0.35847037177603
  H   -3.57763537250480      1.33950570280997     -1.30513599838723
  H   -2.54234823532809      2.42846306517523     -0.36215515090028
  C   -3.15585061050238     -0.95501281190486      0.14703880265999
  H   -2.05583669556437      0.53255193459803      1.22665633996526
  H   -4.06429465225284     -0.83682038325068      0.73627655344905
  H   -3.45022665942528     -1.19780258321695     -0.87477163927987
  H   -2.60907843045048     -1.80334174898163      0.55511839339743
  C   -0.90897855567203      0.47173560537477     -1.73981523630487
  C   0.41125148348346      0.29625988950289     -2.26607499595293
  H   -1.71539436671686      0.90035124772956     -2.32603259279830
  C   1.45076179165994      0.08628744565509     -1.35792656686879
  C   2.66479318790406     -0.16730736263592     -2.06938190344009
  S   0.89752531916138      0.21083982631735     -3.88805830004879
  C   2.51167240982093     -0.12505502172243     -3.42139090790763
  H   1.62491925035750      1.13660982451405     -0.62621667613720
  H   3.62373190082465     -0.31354883449869     -1.59359712898796
  H   3.27143037182565     -0.25235573695665     -4.17750940037735
  H   -0.65056990639833     -3.26452709819799     -0.27389745014751
  H   -0.95882296427058     -2.41788777209346      2.29574868078667
  H   1.41316830601615     -1.48832698832266      3.12576038444850
  O   1.72201291325223      2.30892747626159      0.13289079148078
  O   0.55834729409586      1.01895339774688      1.52355757908621
  C   1.11984015188493      2.11609788686423      1.20477432735297
  C   1.06235422507240      3.22383623757319      2.21569666546265
  H   0.95027865290294      4.18622476342455      1.72164569575957
  H   2.00571095536088      3.25073636465724      2.76373814431668
  H   0.25838385671899      3.07418245932528      2.93088140408213
  H   3.21824768672124     -1.86670592265683      1.17944514197587
  H   1.91028854126954     -2.93344577465849     -0.95277124178781
