39
Coordinates from ORCA-job reaction4-IEIP_ts_guess_scan_10-1_orca
  Ir  0.63427813875188     -0.71289126352087      0.41395630419321
  C   0.14286850793032     -2.82896824505064      0.30967171719927
  C   0.02848554960857     -2.37797085653347      1.67138286008838
  C   2.21733037787763     -2.07718551415693      0.99308832137909
  C   1.47592696419037     -2.64294594931339     -0.10689611920786
  C   1.32155967543639     -1.94564183950218      2.08055935239100
  N   -1.04897046406804      0.13740888326606     -0.51803690982420
  C   -2.30645158477806      0.40546054438343      0.19621863472048
  C   -3.08166580578998      1.59111740951597     -0.35903824011245
  H   -3.89889041570404      1.82771732924115      0.32089422502701
  H   -3.53495881583856      1.38433861059974     -1.32941446580512
  H   -2.45867735392604      2.48173588106640     -0.44381558306521
  C   -3.15367702611257     -0.86202800477230      0.21779356846662
  H   -2.00330656781584      0.64099610099987      1.21709036591568
  H   -4.04472560017650     -0.69922642411519      0.82244125162330
  H   -3.47760176040779     -1.13765005373119     -0.78662029227373
  H   -2.61489020108431     -1.70507460712417      0.64786991486682
  C   -0.90278186820980      0.39911554712089     -1.76290471303143
  C   0.42404209219879      0.19287740166470     -2.27589107600390
  H   -1.70939133758738      0.78832107907907     -2.37627090374151
  C   1.48730746668505      0.18960855191920     -1.36731767173925
  C   2.70457986287178     -0.12370498733278     -2.05080663791805
  S   0.88963263569127     -0.17501018812533     -3.86165060815262
  C   2.53036811819923     -0.34192798188599     -3.38076391448076
  H   1.52826314689965      1.18175018658572     -0.67131475675277
  H   3.67523912874550     -0.12987930906259     -1.57656553774661
  H   3.28264529938775     -0.56851078804424     -4.12094187311813
  H   -0.65508604343370     -3.23788030219834     -0.29313121809106
  H   -0.85060981163564     -2.42749162997662      2.29597487551545
  H   1.56251146921832     -1.51692202147166      3.04305919058923
  O   1.44933531808160      2.42514573633016      0.13805835980807
  O   0.56125068542753      0.97518956269746      1.57644716462861
  C   0.98607952152176      2.14059526188232      1.24604173508848
  C   0.91969543188781      3.17912591736309      2.33040897483610
  H   0.87532858027686      4.17870530236209      1.90652109882069
  H   1.82573331227666      3.11491585361162      2.93592221305737
  H   0.07257919332552      3.01485679820315      2.99241773026771
  H   3.27256039035237     -1.85180510722424      1.00748628600537
  H   1.87345382972562     -2.88707695474996     -1.08118349342328
