39
Coordinates from ORCA-job reaction4-IEIP_ts_guess_scan_13-5_orca
  Ir  0.62327895064545     -0.72927628544164      0.39351047663144
  C   0.16758613930617     -2.85186318861085      0.31683267462418
  C   -0.07077649863978     -2.41414795548811      1.66859104398316
  C   2.15982780357014     -2.05494985310370      1.17291508584370
  C   1.53707661279988     -2.65545094025766      0.02767289304981
  C   1.15659724188056     -1.94263070437588      2.17933328630372
  N   -1.07373806945651      0.12020054754415     -0.51252450003575
  C   -2.33738526935301      0.31882133240438      0.21134740122578
  C   -3.13178533318388      1.52807528948669     -0.26072783796202
  H   -3.95748348778097      1.69723463038587      0.42857881928902
  H   -3.57422584841266      1.38628587215490     -1.24770707702674
  H   -2.52553851645537      2.43413260828643     -0.27401212948797
  C   -3.16614352947482     -0.95900160275405      0.13373710487156
  H   -2.04541736800007      0.48715805401788      1.24904781330477
  H   -4.06347173884258     -0.85683979032907      0.74266986717765
  H   -3.47940671260905     -1.16219231498185     -0.89109262366915
  H   -2.61747964016639     -1.82543988235929      0.49923795644269
  C   -0.92955165999223      0.48191630694306     -1.73471159620757
  C   0.38697654739414      0.29491365632077     -2.26329143889665
  H   -1.73584996721529      0.92557024697174     -2.30919955269492
  C   1.40412929737661      0.02439168324175     -1.33724733278975
  C   2.62909391840879     -0.21691614990647     -2.04513537200959
  S   0.90179568736467      0.27745265842393     -3.87502533844753
  C   2.50204505497653     -0.10899221079195     -3.39470938340422
  H   1.60661499486355      1.12942320310975     -0.69811618088961
  H   3.57730073376906     -0.39982900107765     -1.56025617715499
  H   3.27389047170860     -0.21350689518120     -4.14203553066253
  H   -0.55815740642999     -3.29774667126314     -0.34744856920655
  H   -1.00208848653863     -2.47273186886925      2.21065257353405
  H   1.29911035439438     -1.49804140853961      3.15414927009044
  O   1.70544605359329      2.33458874050230      0.06255773535604
  O   0.59234911867673      1.02971492632861      1.48232461909345
  C   1.13245324745917      2.13239967662538      1.14875251014638
  C   1.08619023992568      3.23938356488029      2.16208518540575
  H   0.98422025718420      4.20454888801494      1.67168699620107
  H   2.02885369187873      3.25322678274589      2.71191924411217
  H   0.28056610151466      3.09501295276904      2.87661510639684
  H   3.20747984943479     -1.82593610620130      1.29182260716084
  H   2.02498720442545     -2.90976888162506     -0.90205962969897
