39
Coordinates from ORCA-job reaction4-IEIP_ts_guess_scan_1-11_orca
  Ir  0.57058363918019     -0.74012506093269      0.51563390868155
  C   0.01788177981454     -2.81793258974815      0.38330686309289
  C   0.06101000177453     -2.37144002072413      1.75418582938009
  C   2.17388475968679     -2.15321665567556      0.86380252545647
  C   1.29912642187678     -2.65432438744188     -0.17277912331977
  C   1.42177021356034     -2.01708951323779      2.04359818449840
  N   -1.03804329813671      0.14274244443359     -0.50198928987057
  C   -2.32245044830941      0.45243018150714      0.14920792224013
  C   -3.11222944000945      1.54637514550203     -0.55236080989513
  H   -3.94736029722703      1.83990010612344      0.08222702010503
  H   -3.54343450140286      1.22005873636128     -1.49998191606518
  H   -2.50913701294395      2.43751910672487     -0.72830927185388
  C   -3.14238441389799     -0.82316634029667      0.30070760464187
  H   -2.05087374529507      0.81097073658941      1.14354678925478
  H   -4.06719671383128     -0.60325270578427      0.83203060853535
  H   -3.40818078674508     -1.24092989725163     -0.67126536717697
  H   -2.61428535248550     -1.58441353503735      0.87316641342711
  C   -0.83728025669483      0.35262240435432     -1.74749325638419
  C   0.50742239155163      0.17004757214877     -2.23904670334719
  H   -1.63280542376582      0.69302881824574     -2.40469751541116
  C   1.61781753162141      0.48725617531983     -1.46825522399154
  C   2.81271634671029      0.12635123467787     -2.15095040213245
  S   0.91588314277001     -0.48904476467440     -3.76374779923392
  C   2.58625655164937     -0.39939612029611     -3.38634540877226
  H   1.54718403682336      1.37919331375339     -0.61596584725929
  H   3.80514003635332      0.30322123551585     -1.76224506161493
  H   3.31647090902620     -0.72182876938590     -4.11327750065642
  H   -0.85719058882884     -3.17745050029976     -0.13874688734842
  H   -0.74941574083273     -2.40634336655345      2.46743934818924
  H   1.78297484790982     -1.63013175673137      2.98562596141276
  O   1.39208370097172      2.40044964745708      0.24208117266051
  O   0.53811712744160      0.92701275675343      1.68320742588450
  C   0.95527554569916      2.09866791350430      1.35684918241334
  C   0.91610829617489      3.11869823474225      2.45753190561066
  H   0.85726237524156      4.12419392511645      2.04959638053713
  H   1.83947483438348      3.04973505993025      3.03618159889567
  H   0.08915197271756      2.94216938999057      3.14149411884460
  H   3.22305428714724     -1.92461538558088      0.74912263713845
  H   1.58498726032078     -2.86875276909984     -1.19234588656729
