39
Coordinates from ORCA-job reaction4-IEIP_ts_guess_scan_14-14_orca
  Ir  0.60202189710196     -0.75173337664682      0.37987996097466
  C   0.21153935691227     -2.87055038913924      0.33072041266118
  C   -0.17099547196944     -2.45342632925547      1.65971132719380
  C   2.07708357552441     -2.00467457574298      1.37869204665405
  C   1.60728256449640     -2.64591346015403      0.19459814094645
  C   0.96460170536798     -1.93145008453409      2.28535765587970
  N   -1.10850210509106      0.08261217153807     -0.50315289430800
  C   -2.38244664206973      0.20978001187506      0.21911946505914
  C   -3.16681759594149      1.46371753959902     -0.13910134191292
  H   -4.00317003721024      1.56612841907682      0.55061891206315
  H   -3.59355518929593      1.42686850279237     -1.14235358039600
  H   -2.55608981291414      2.36238156862829     -0.05090921348721
  C   -3.21260410577293     -1.05094395920402      0.00515079612203
  H   -2.10712842549607      0.27529394128801      1.27303979349645
  H   -4.10787371498865     -1.01856857664699      0.62494983324357
  H   -3.52988955862746     -1.13852164847688     -1.03473712655990
  H   -2.66145994774783     -1.95359194372935      0.26515617808158
  C   -0.96568459752354      0.51578688586488     -1.70358639235540
  C   0.34599279406924      0.36035694541311     -2.24513619550495
  H   -1.77757347104897      0.98408652405234     -2.25012029123041
  C   1.33021419425418     -0.08794825736093     -1.36055830261635
  C   2.56282537457576     -0.25067967841543     -2.06974547877247
  S   0.90133143474582      0.59153411583352     -3.83613600476946
  C   2.46956582676734      0.08407739379200     -3.39055094501527
  H   1.71279629752000      1.24102295787128     -0.77755806891563
  H   3.49233607383813     -0.55686448911007     -1.61143881716692
  H   3.25829296564593      0.06975172815868     -4.12743262625463
  H   -0.42018016007116     -3.36581694730659     -0.39179574816403
  H   -1.15565383360027     -2.52981206991160      2.09485938467508
  H   0.99032861674288     -1.48137852794673      3.26728664992639
  O   1.86811323876148      2.31135251629324     -0.05625974056491
  O   0.65563162413973      1.09312322400312      1.36558837956229
  C   1.26218821384355      2.14202471806891      1.04079900595936
  C   1.30231067447141      3.27483834399971      2.01960653313319
  H   1.20025799800561      4.23066405960228      1.51053570791953
  H   2.27353301334150      3.27705404736682      2.51768339889959
  H   0.53033100592098      3.16893437621370      2.77597765759511
  H   3.09937267292068     -1.74353336626335      1.60448508597576
  H   2.20104369040169     -2.89679230148665     -0.67250349802759
