39
Coordinates from ORCA-job reaction4-IEIP_ts_guess_scan_3-11_orca
  Ir  0.58583151317353     -0.73741569950166      0.50484945943972
  C   0.04481758713042     -2.82241248287365      0.38496923305805
  C   0.02492150739555     -2.36206926834425      1.75055777844823
  C   2.17632906483693     -2.14006398788778      0.94970743218957
  C   1.35019810319345     -2.66159765938225     -0.11535014462275
  C   1.36665994079418     -1.99104527983534      2.09139528870194
  N   -1.03703879104979      0.13150244561256     -0.50395583516651
  C   -2.31993663902185      0.41460938880689      0.16265554700833
  C   -3.10090011485098      1.55203876201121     -0.47792438885134
  H   -3.93418477075772      1.81737729489336      0.17133349054923
  H   -3.53379332962466      1.28043561774988     -1.44170812338599
  H   -2.48986697078319      2.44583940570155     -0.60568468961880
  C   -3.14949703665157     -0.86173151096622      0.24005210463868
  H   -2.04838067233465      0.71512815500152      1.17580596260732
  H   -4.06962594809599     -0.66967476249867      0.79013667569533
  H   -3.42386382835159     -1.21593457707425     -0.75450491159191
  H   -2.62245471723367     -1.66164410581988      0.75788698829259
  C   -0.85474972193072      0.36527984615391     -1.74913934411489
  C   0.48059914402382      0.19510837141598     -2.26129984690309
  H   -1.66129070402409      0.71487414355792     -2.38755693599829
  C   1.58937335674793      0.39423240579585     -1.44969282923165
  C   2.78227008117894      0.06260786694360     -2.14947244603288
  S   0.88865817144844     -0.32626311080481     -3.83488479390126
  C   2.55483828292824     -0.33087353694804     -3.43366727739520
  H   1.56025349493707      1.31337113009468     -0.59945448280959
  H   3.77447646808809      0.16740126820063     -1.73517104335981
  H   3.28393470364035     -0.60391328044920     -4.18156907873615
  H   -0.80282576574450     -3.19635875950669     -0.17103221737873
  H   -0.81525767464085     -2.39349849768576      2.42841483060190
  H   1.68220190534448     -1.58576213525419      3.04225845851685
  O   1.46498256723759      2.37725842181198      0.21438369953230
  O   0.54094815476051      0.94941047914157      1.65558504492041
  C   0.98982776915658      2.10379855424839      1.32398431113455
  C   0.94440969952488      3.14817533614823      2.40083504814875
  H   0.90185190937690      4.14538573567561      1.97108590382384
  H   1.85849711674306      3.08247840611653      2.99430338217722
  H   0.10526002252216      2.99347053016233      3.07497296096889
  H   3.23084477393152     -1.91787786254432      0.88506197823585
  H   1.68105137698118     -2.89245703786723     -1.11742706959076
