39
Coordinates from ORCA-job reaction4-IEIP_ts_guess_scan_4-2_orca
  Ir  0.59993732906244     -0.71448564067211      0.44061246401160
  C   0.04849704874151     -2.80053235004100      0.34216817538770
  C   0.12127055498075     -2.34619940454385      1.70855331738882
  C   2.21128737317967     -2.12340691355880      0.76529763650500
  C   1.31642197455991     -2.64050904507618     -0.24547589523023
  C   1.48439094520908     -1.97923573066278      1.96095287765398
  N   -1.04635035138050      0.16969532543670     -0.52482101834097
  C   -2.31384793124842      0.49321989479078      0.14787028943747
  C   -3.12304575936908      1.56524213266844     -0.56407523999420
  H   -3.94986371219567      1.86616283312234      0.07785464124103
  H   -3.56703821231720      1.21488555253711     -1.49730063499912
  H   -2.53043114066716      2.45755152128152     -0.76815718735617
  C   -3.12296423688785     -0.78202984576876      0.35093964839122
  H   -2.01722652557204      0.87668182080354      1.12541366920100
  H   -4.03330094113740     -0.55238208427398      0.90259145470374
  H   -3.41405099419318     -1.22312334731085     -0.60327435254802
  H   -2.57564139497100     -1.52728523202006      0.92636226062651
  C   -0.85264724182956      0.37969214035822     -1.76902576225972
  C   0.49659296529560      0.15388367806895     -2.23854520878025
  H   -1.63469835998392      0.74228554483761     -2.42976763213901
  C   1.59343719487630      0.46006573705896     -1.43857518921006
  C   2.80134778862419      0.04838523730824     -2.07413816333955
  S   0.93151790272059     -0.58460932429156     -3.71091476241623
  C   2.59618098699580     -0.52302761789484     -3.28998307771473
  H   1.53020200839602      1.35307286099685     -0.67599371881629
  H   3.78482486723333      0.22161319578416     -1.66203484932752
  H   3.33577981194081     -0.89289062026049     -3.98393134009774
  H   -0.83736666726470     -3.16693045333020     -0.15645795097277
  H   -0.67189184062605     -2.37710311148885      2.44092991248957
  H   1.86508275882102     -1.57923135195316      2.88977073221699
  O   1.31090043701343      2.47093465585751      0.25534611770270
  O   0.53404725135648      0.91697472568536      1.65409557035240
  C   0.90616980345712      2.11883347020841      1.35997214645993
  C   0.84233472414573      3.08825294335960      2.50742008240064
  H   0.80243784283013      4.11148452133309      2.14407865175655
  H   1.74463234911159      2.98338915794417      3.11307035105507
  H   -0.00694152615135      2.88982421068003      3.15797893396184
  H   3.25816347301808     -1.89700628362779      0.62851047183820
  H   1.58121942422550     -2.87295281334630     -1.26657740123938
