39
Coordinates from ORCA-job reaction4-IEIP_ts_guess_scan_3-8_orca
  Ir  0.58454736872139     -0.72823118900055      0.48166752333828
  C   0.02924783365625     -2.80950304218695      0.37113792591073
  C   0.08274619410429     -2.35829407857729      1.73918516878472
  C   2.18827845191849     -2.14091847505744      0.82851163477446
  C   1.30631157733368     -2.65054694299930     -0.19731515090525
  C   1.44380553502121     -1.99717519362372      2.01320005831090
  N   -1.04243913627009      0.15192205001014     -0.51457853917542
  C   -2.31997704431695      0.46181697120895      0.14806583373592
  C   -3.12117680197045      1.54823019054429     -0.55192072187048
  H   -3.95265766224905      1.83987115536541      0.08829855206041
  H   -3.55838607022901      1.21546973817251     -1.49462001726389
  H   -2.52484027011213      2.44229014193542     -0.73622861310093
  C   -3.13366657765798     -0.81567187964670      0.31633602815793
  H   -2.03777909323839      0.82716905005909      1.13688473137227
  H   -4.05329680735005     -0.59479639214079      0.85615614623012
  H   -3.40866288339317     -1.24047826479492     -0.64997872852866
  H   -2.59709409753479     -1.57131173528060      0.88818526610483
  C   -0.84741743984682      0.36930791669200     -1.75919900651449
  C   0.49786333526532      0.17442369238250     -2.24451315331996
  H   -1.63950373511384      0.72123106237445     -2.41399288497809
  C   1.59799964038246      0.44875950872104     -1.44071812226788
  C   2.80135892265307      0.07558193573521     -2.10356174879871
  S   0.92572443786871     -0.47225193888943     -3.76444941045620
  C   2.59029190582247     -0.42613919283359     -3.35078441462945
  H   1.53656843213106      1.35088988629220     -0.62638835466525
  H   3.78794230677583      0.22692277233894     -1.69015477705182
  H   3.32783782139044     -0.75225381977754     -4.06855387505884
  H   -0.84979179040642     -3.17200013184291     -0.14218424952552
  H   -0.72149528735031     -2.38971955567709      2.45935726361007
  H   1.81212178793459     -1.60228424430343      2.94917722405993
  O   1.37692225204941      2.42025967508090      0.24030965238714
  O   0.53436802676113      0.92829609906891      1.66734501339928
  C   0.94393209717465      2.10671942015334      1.35159644157753
  C   0.89726689189994      3.11432608970811      2.46425312770567
  H   0.86285491700119      4.12542492165808      2.06783547912312
  H   1.80509253682981      3.02226231785721      3.06381078748500
  H   0.05236993602812      2.94298458655367      3.12763814418761
  H   3.23743554281176     -1.91619211298833      0.70708759294059
  H   1.58466693550422     -2.87720098229179     -1.21615768714573
