39
Coordinates from ORCA-job reaction4-IEIP_ts_guess_scan_11-12_orca
  Ir  0.60771117182943     -0.74367234924412      0.42824311607944
  C   0.12760265504870     -2.85255013429403      0.36415854031479
  C   -0.10641915574983     -2.39404298617068      1.70930613281442
  C   2.13196425185302     -2.07789503986929      1.21326582011507
  C   1.49963094952815     -2.67532723457939      0.07117475826020
  C   1.13126270663808     -1.93640139561152      2.21579100372800
  N   -1.07213546216029      0.10447962072290     -0.50936809176813
  C   -2.34928086524658      0.28756706468582      0.19707600687584
  C   -3.14382632220532      1.49765296510611     -0.27364952791274
  H   -3.97842345223525      1.65677806364326      0.40727920991034
  H   -3.57359507505383      1.36368244983886     -1.26724520751981
  H   -2.54162499216426      2.40651493714268     -0.27132589721942
  C   -3.17144363570023     -0.99222279279869      0.09507199183463
  H   -2.07603093100293      0.44888819970922      1.24106904886249
  H   -4.08242673381664     -0.89758027445102      0.68476937152554
  H   -3.46134056756431     -1.19093903040438     -0.93749663424748
  H   -2.62815772458650     -1.85914174441029      0.46746206147824
  C   -0.91802345189525      0.47708357102680     -1.72757233260948
  C   0.39846433429385      0.31701098051018     -2.26457208239064
  H   -1.72854280730150      0.91413372978318     -2.30184668169630
  C   1.43133731129932      0.03749060286951     -1.37237923797241
  C   2.64603570591728     -0.17360481835436     -2.09149855271545
  S   0.89388852595443      0.35290255542434     -3.88932491054804
  C   2.49990629801508     -0.02698261670244     -3.43912701779769
  H   1.65294445162288      1.17262208442457     -0.63206028274544
  H   3.60097061649990     -0.36985026564113     -1.62568367571141
  H   3.26417646842388     -0.10605007764624     -4.19736465062280
  H   -0.60469377797779     -3.29088512490521     -0.29802163037537
  H   -1.03713395256491     -2.43794542814451      2.25382226504863
  H   1.28077345824711     -1.48519300467013      3.18657907868409
  O   1.76950714593374      2.28661372479395      0.08245899361841
  O   0.58344527988962      1.03929851770959      1.49358089130109
  C   1.16316771275949      2.11444646979243      1.16617932738071
  C   1.14271514107747      3.24348819399298      2.15155846000202
  H   1.00980760830897      4.19512978862505      1.64162400932693
  H   2.10646372221192      3.28447620355115      2.66200131138702
  H   0.36558112030591      3.10694356158139      2.89783160004770
  H   3.18203341378210     -1.85750337418677      1.32681060221036
  H   1.98307887778510     -2.94022560284974     -0.85783717695332
