39
Coordinates from ORCA-job reaction4-IEIP_ts_guess_scan_13-2_orca
  Ir  0.62762667209872     -0.72159996003422      0.38870299080736
  C   0.16557217574096     -2.84674938622468      0.31330882294103
  C   -0.04627401098207     -2.40430471869907      1.66727193917245
  C   2.17617689181848     -2.05474163415407      1.13007651972469
  C   1.52788594937193     -2.65218269697124     -0.00433244614697
  C   1.19474639853531     -1.93704617866381      2.15447403643928
  N   -1.06994746163887      0.12919070463765     -0.51680309394217
  C   -2.33061230952296      0.34068035769851      0.20828102452004
  C   -3.12904553610751      1.53864214104781     -0.28509379103857
  H   -3.95168327630527      1.72088603877396      0.40457255004769
  H   -3.57635608257310      1.37466776381948     -1.26644756735108
  H   -2.52477586676159      2.44541112247959     -0.32050479253997
  C   -3.15778126583354     -0.93976447963538      0.15950246840294
  H   -2.03366610713670      0.52920110547703      1.24103067788533
  H   -4.05326775765778     -0.82532611516092      0.76889928272289
  H   -3.47412948366823     -1.16457565997160     -0.85984357049971
  H   -2.60726923805989     -1.79754067172306      0.54212551534531
  C   -0.92600581104723      0.47734536426499     -1.74255647570428
  C   0.39148974810297      0.28120112871486     -2.26724957650291
  H   -1.73054078377662      0.91695718252664     -2.32256769750021
  C   1.41338463862805      0.04348997915615     -1.33480711036370
  C   2.63714461403140     -0.21709687483636     -2.04064402273977
  S   0.89908207718883      0.20532896560247     -3.87768336171249
  C   2.50434522824235     -0.15916622835652     -3.39169665621575
  H   1.59737466542872      1.11434468836132     -0.69889747806941
  H   3.58815168358774     -0.37589761166463     -1.55280577372647
  H   3.27272361698689     -0.28675106962410     -4.13897318475844
  H   -0.57566730836718     -3.28769990756057     -0.33705977326512
  H   -0.96658516733082     -2.46058797622617      2.22810403193578
  H   1.35811201105072     -1.49219188904553      3.12591171489962
  O   1.68028692188963      2.35453951155622      0.08859500467896
  O   0.58153265519241      1.02120763298329      1.49385185288828
  C   1.11083205742504      2.13655629083584      1.16850107960929
  C   1.04580843246838      3.22721507372873      2.19989811973607
  H   0.97636406695147      4.20209035682788      1.72364461100661
  H   1.96762828184138      3.21458883445931      2.78405818492416
  H   0.21380649700407      3.08418644786721      2.88426800721455
  H   3.22636884981220     -1.82691977932785      1.22701260122026
  H   1.99653338337176     -2.90839786293918     -0.94338453404557
