39
Coordinates from ORCA-job reaction4-IEIP_ts_guess_scan_10-14_orca
  Ir  0.60309224029428     -0.74812697060174      0.44407419613894
  C   0.11620163859302     -2.85268394793539      0.38073271669259
  C   -0.11671566028555     -2.38623451046154      1.72319200603177
  C   2.12431261150369     -2.08519553562141      1.22833102684981
  C   1.48865843034193     -2.68097515908848      0.08675305858112
  C   1.12494646228215     -1.93394048639013      2.22919361330990
  N   -1.06921699911439      0.09868213218066     -0.50751303340467
  C   -2.35097058601486      0.27909941597263      0.19240294304900
  C   -3.14348552182390      1.49030981321241     -0.27924706325349
  H   -3.98060827263033      1.64849104550344      0.39881234680744
  H   -3.56953316297291      1.35857068974554     -1.27471902093739
  H   -2.54094189035750      2.39891826381378     -0.27302169844051
  C   -3.17270775111698     -1.00021146077946      0.08330158627781
  H   -2.08420783073951      0.43864085586116      1.23834258373349
  H   -4.08785553978488     -0.90633452818450      0.66667348085695
  H   -3.45536724975239     -1.19775994058009     -0.95150927208871
  H   -2.63237393444157     -1.86781837661823      0.45845281983944
  C   -0.91294263816845      0.46945204403115     -1.72614758900307
  C   0.40250838674208      0.31891497237297     -2.26858616179431
  H   -1.72633286934429      0.90038902922412     -2.30132021176634
  C   1.44665241662487      0.04884791938082     -1.39122944437803
  C   2.65502882661585     -0.15337069480904     -2.11816391774112
  S   0.88287280035022      0.36067024454319     -3.90040061449285
  C   2.49479450286698     -0.00647189092024     -3.46530996721414
  H   1.66943541171861      1.18659214271148     -0.60714470182041
  H   3.61532439849156     -0.34559903269694     -1.66192946097385
  H   3.25269648447944     -0.08034070681282     -4.23046427098933
  H   -0.61812994645071     -3.28831333794651     -0.28098756052812
  H   -1.04721480316249     -2.42549798437259      2.26851340123114
  H   1.27657303602106     -1.48085771549979      3.19880337477480
  O   1.78595449361857      2.27381548897043      0.09596885937032
  O   0.57938175359512      1.04095369597750      1.50249046783204
  C   1.16944280533101      2.10903316373613      1.17795027767091
  C   1.15428207043013      3.24299219541693      2.15655949450628
  H   1.01898978492549      4.19189755235009      1.64199060266066
  H   2.12063990422589      3.28714180239193      2.66179025596552
  H   0.38045243543926      3.11051432817421      2.90688192375451
  H   3.17504773379371     -1.86679060692573      1.33951340562827
  H   1.97068598787579     -2.94821384932595     -0.84229029273635
