39
Coordinates from ORCA-job reaction4-IEIP_ts_guess_scan_13-3_orca
  Ir  0.62649901273744     -0.72448459833674      0.39039524138602
  C   0.16612959589321     -2.84873488894638      0.31403999148757
  C   -0.05446202643166     -2.40803786161076      1.66739439183758
  C   2.17088379993172     -2.05570127929816      1.14411698295360
  C   1.53091478252352     -2.65376760237754      0.00589835840537
  C   1.18218469672889     -1.93976577273634      2.16256297575380
  N   -1.07076719228735      0.12634408356863     -0.51510358143950
  C   -2.33229710362871      0.33382068350647      0.20973646939208
  C   -3.12909657076066      1.53586216950945     -0.27637498648807
  H   -3.95263749237201      1.71390526908196      0.41329738999032
  H   -3.57492468861865      1.37949565438888     -1.25963497762978
  H   -2.52391375248329      2.44228854011621     -0.30439024753244
  C   -3.16035977637345     -0.94558827422831      0.15130968153074
  H   -2.03686162125718      0.51544377123648      1.24417416526663
  H   -4.05634237484823     -0.83506739393207      0.76072029972038
  H   -3.47588277898111     -1.16301219423258     -0.86989489363232
  H   -2.61065026975754     -1.80647791373821      0.52808446730092
  C   -0.92679877442040      0.47905800694062     -1.73968271928646
  C   0.39030517876637      0.28578028254128     -2.26581432457815
  H   -1.73188375936073      0.92024663341694     -2.31773754786702
  C   1.41068108692458      0.03718636602308     -1.33534551150281
  C   2.63477773381957     -0.21715637985277     -2.04203246733774
  S   0.90020092040966      0.22939451676083     -3.87690292981337
  C   2.50381706583353     -0.14266111075525     -3.39276770206463
  H   1.59985459897798      1.11879973003423     -0.69857957012696
  H   3.58488090863502     -0.38401783202411     -1.55510624443617
  H   3.27327733642503     -0.26264835480830     -4.14020330250225
  H   -0.57008655748231     -3.29103770547085     -0.34108111019123
  H   -0.97846757615686     -2.46504234899091      2.22202364263824
  H   1.33870844818785     -1.49520032831033      3.13525359425417
  O   1.68708234924262      2.34788606248678      0.07924008621275
  O   0.58582401276400      1.02338918647733      1.49055387637776
  C   1.11724628829479      2.13504682701887      1.16159764946194
  C   1.05764886769125      3.23154075636937      2.18663679199120
  H   0.97797273478690      4.20311254403941      1.70514938344460
  H   1.98600577481704      3.22781601257746      2.76047794847808
  H   0.23364977836469      3.08821404409856      2.88042183584052
  H   3.22033164979680     -1.82775791329513      1.24845742163341
  H   2.00592577366762     -2.90928140724814     -0.93015036892876
