39
Coordinates from ORCA-job reaction4-IEIP_ts_guess_scan_9-0_orca
  Ir  0.62910148954824     -0.70718796038345      0.41484343423370
  C   0.10307654382595     -2.81477674998680      0.33866080465076
  C   0.07449122424173     -2.35272332773679      1.70024909735275
  C   2.22355860950178     -2.09496091657524      0.89524601631892
  C   1.40926592181525     -2.64767296142785     -0.16128244302670
  C   1.40112455464228     -1.94410626987937      2.03286856901354
  N   -1.04530881687512      0.14930199760596     -0.52752974315215
  C   -2.30537918216920      0.43330842964300      0.17588788123158
  C   -3.09258767947464      1.58690877016717     -0.42660132579431
  H   -3.91132920663195      1.84344870734488      0.24422662087270
  H   -3.54539332403760      1.33535542446888     -1.38668225354759
  H   -2.47885907325349      2.47972479447941     -0.54838929018118
  C   -3.13991618071404     -0.84027717669766      0.25239564645920
  H   -2.00244296188052      0.71235727410460      1.18592956377611
  H   -4.03904011728464     -0.65508839487492      0.83828073879266
  H   -3.45027425165957     -1.17019650962200     -0.73984593708348
  H   -2.59878798068762     -1.65395858247822      0.73297576065786
  C   -0.88680183900640      0.39599813832190     -1.77286938388906
  C   0.44658527726711      0.18462691553844     -2.27204788380039
  H   -1.68672647696264      0.77786428843125     -2.39957164129995
  C   1.51485620662039      0.25200108829120     -1.37357940451731
  C   2.73257667730225     -0.09040311867888     -2.03937538331455
  S   0.91025173563812     -0.28150007460025     -3.83360333384803
  C   2.55522167358154     -0.39869955017077     -3.35088686267069
  H   1.52245976060617      1.21559692970577     -0.66497875931819
  H   3.70477998509272     -0.05393036022846     -1.56979666142861
  H   3.30667368958614     -0.66554111992688     -4.07842894041502
  H   -0.73711482971565     -3.20851328359564     -0.21505531506592
  H   -0.76734652377430     -2.38584367593793      2.37533792434984
  H   1.70690757910786     -1.51885912428156      2.97822529215536
  O   1.39434202183663      2.44864945625025      0.17951357835153
  O   0.54476179664517      0.95849726259987      1.60111438681941
  C   0.95033094907246      2.13790992422518      1.28550417586662
  C   0.88035210724404      3.15029300977307      2.39464131536867
  H   0.85135651617042      4.16026501493955      1.99499055958720
  H   1.77632209387896      3.06112306763344      3.01193239784310
  H   0.02278965079593      2.97916749154809      3.04170120343429
  H   3.27920966107544     -1.87652016930175      0.84200549861541
  H   1.74628274903080     -2.90244872868748     -1.15526580339807
