39
Coordinates from ORCA-job reaction4-IEIP_ts_guess_scan_10-13_orca
  Ir  0.60588371850873     -0.74388674591472      0.44339776401526
  C   0.13166353160688     -2.85134024282063      0.36423488184473
  C   -0.11383866100739     -2.39127858574283      1.70704699776972
  C   2.12895405217570     -2.07604142113137      1.23132671201958
  C   1.50525780082499     -2.67098476001218      0.08275544913396
  C   1.12119377441618     -1.93534807762629      2.22556254097136
  N   -1.06851111407372      0.10210938952375     -0.50533365014596
  C   -2.34863070470914      0.28572617599218      0.19669127035259
  C   -3.13806537838866      1.49967132595037     -0.27292072717671
  H   -3.97395765007417      1.65979577084861      0.40620923446580
  H   -3.56568989292418      1.37014155433487     -1.26801063718364
  H   -2.53267629409487      2.40636256296388     -0.26660138267451
  C   -3.17363226618193     -0.99154617994507      0.08707820491635
  H   -2.07986663121796      0.44329437885662      1.24235584200878
  H   -4.08574331294887     -0.89779061176919      0.67518534278455
  H   -3.46172275584769     -1.18500951306515     -0.94701591519070
  H   -2.63313276722401     -1.86161215247028      0.45638438622152
  C   -0.91519194589590      0.46614636152519     -1.72604073043947
  C   0.39959534881460      0.31184554434275     -2.26951946158082
  H   -1.72958145715767      0.89412011357976     -2.30205235898023
  C   1.44733965234170      0.05829576015037     -1.39060254197214
  C   2.65357560853884     -0.15580916079838     -2.11879083944852
  S   0.87388751654304      0.32368649230422     -3.90280196566111
  C   2.48840900193667     -0.03438195693949     -3.46734285502871
  H   1.66032067113178      1.17395097531112     -0.60945588417264
  H   3.61591933778313     -0.33635280737756     -1.66208518797341
  H   3.24324487715034     -0.12078305725237     -4.23419918277557
  H   -0.59506185179242     -3.28880615810272     -0.30459547995739
  H   -1.04876611781941     -2.43624067453170      2.24435997420996
  H   1.26230490571749     -1.48536587242367      3.19819392420423
  O   1.77745589794036      2.27428081022511      0.09969891642572
  O   0.57774410829362      1.03822994244077      1.50849943911711
  C   1.16436659971983      2.10945051552552      1.18104226714509
  C   1.14465741301477      3.24222777224678      2.16169759528820
  H   1.01969919401706      4.19253507984497      1.64730608124331
  H   2.10575459427340      3.28007609124472      2.67738827444007
  H   0.36274116176812      3.11275114765772      2.90424733541207
  H   3.17767773575060     -1.85281109112422      1.35159853415819
  H   1.99579219909021     -2.93011868582149     -0.84415211778662
