39
Coordinates from ORCA-job reaction4-IEIP_ts_guess_scan_12-8_orca
  Ir  0.61683124780485     -0.73330801559853      0.41024504401131
  C   0.15529824336721     -2.85076876589794      0.33192474649248
  C   -0.08557127750630     -2.40536492195789      1.68058383449244
  C   2.14929942918821     -2.06096913191721      1.19148658801538
  C   1.52605679304330     -2.65939799112813      0.04504930781752
  C   1.14454847648145     -1.93900986707859      2.19378272742552
  N   -1.07311679440932      0.11469952581911     -0.50996387689519
  C   -2.34285858009845      0.30679300408319      0.20607578061808
  C   -3.13676081792936      1.51673998665354     -0.26544929927897
  H   -3.96650730123083      1.68179631918878      0.41997278081951
  H   -3.57348778185558      1.37859464673019     -1.25546721196750
  H   -2.53181178599642      2.42373310311827     -0.27173349745364
  C   -3.16901220982256     -0.97176059126057      0.11723636376064
  H   -2.05931870745103      0.47169552870902      1.24668924207880
  H   -4.07183464959059     -0.87346225948107      0.71868677365933
  H   -3.47299269886514     -1.17201065206586     -0.91097687685219
  H   -2.62237992353120     -1.83882953403680      0.48436350409316
  C   -0.92528588014402      0.47858811781655     -1.73105418931107
  C   0.39110262231588      0.30357738821445     -2.26416072651121
  H   -1.73422404810093      0.91718082973353     -2.30609461044711
  C   1.41813140360299      0.03809369089489     -1.35414197621515
  C   2.63651027268250     -0.19607767846294     -2.06804782279541
  S   0.89240601929725      0.29376980288436     -3.88331920939850
  C   2.49707979772037     -0.08463277307304     -3.41763198602005
  H   1.62498713071564      1.14383502443141     -0.66350948530568
  H   3.58923946232624     -0.37885184478017     -1.59218847057091
  H   3.26331623923004     -0.18472713006172     -4.17133273713946
  H   -0.57092108418877     -3.29359628090844     -0.33389999317277
  H   -1.01794244070590     -2.45976195730875      2.22131143765104
  H   1.28661639564683     -1.49263635381634      3.16788588297970
  O   1.73654218220726      2.30922553874801      0.07785715878996
  O   0.58534614141749      1.03310764456762      1.49201072853977
  C   1.14605821359017      2.12291859816184      1.16131743933972
  C   1.10986734224495      3.24070545438129      2.16147667209157
  H   0.99174449723397      4.19906330917314      1.66102806777953
  H   2.06270914149070      3.26969914801077      2.69279426122826
  H   0.31775316414377      3.09902768752419      2.89119302260350
  H   3.19726964898867     -1.83362001434610      1.31068664461936
  H   2.01468215668666     -2.91486861566403     -0.88394598957176
