39
Coordinates from ORCA-job reaction4-IEIP_ts_guess_scan_2-5_orca
  Ir  0.58345663601808     -0.72636845397416      0.46888085303920
  C   0.02787848393181     -2.80645568889335      0.34971517113746
  C   0.10897828496997     -2.36040980915703      1.71947591335292
  C   2.19470873762536     -2.14013704166881      0.76975144935337
  C   1.29299075017850     -2.64394192108530     -0.24201804615620
  C   1.47670059285850     -2.00452776630834      1.97054653400181
  N   -1.04337254976650      0.16754603637298     -0.51694506143535
  C   -2.31615622036650      0.49758348140388      0.14367313309101
  C   -3.12885017432277      1.55026747186620     -0.59271288774451
  H   -3.96003395951421      1.85845639394454      0.04002805281668
  H   -3.56680502454931      1.17863345589223     -1.52054864763139
  H   -2.54161004087870      2.44246748861428     -0.81236669839541
  C   -3.12070570278730     -0.77639531386155      0.37041289381384
  H   -2.02601432416521      0.90336642599851      1.11431269975885
  H   -4.03618871763759     -0.53834225734473      0.90985586379047
  H   -3.40308631784843     -1.24067181901863     -0.57542528464579
  H   -2.57536552114105     -1.50583812816373      0.96760510535148
  C   -0.83823704804730      0.37388156967560     -1.76017117683251
  C   0.51289710472528      0.15579952096107     -2.22942086629726
  H   -1.61882249604480      0.73077438986311     -2.42605334224103
  C   1.61673077325064      0.50883729470693     -1.46198526332702
  C   2.81991589535436      0.10034100052521     -2.10590044381477
  S   0.93709565259537     -0.60728784339858     -3.69706774413527
  C   2.60565700098648     -0.50492670850056     -3.30446417087680
  H   1.53694327453221      1.38542610943826     -0.66596480818607
  H   3.80711959412090      0.29908645366111     -1.71468172928498
  H   3.34145514075611     -0.87939648958344     -4.00005038147785
  H   -0.86206949359123     -3.16515572364306     -0.14721493123689
  H   -0.68083781161168     -2.39493812107569      2.45550480698221
  H   1.86401192308831     -1.61578203429677      2.90137626932395
  O   1.31500897172733      2.44831607589938      0.26238125216355
  O   0.53596894891538      0.90770831965241      1.67532298420435
  C   0.91135002878244      2.10570669591940      1.37139209984024
  C   0.85435646773800      3.08509288273837      2.50989074439024
  H   0.81039143295238      4.10485559885619      2.13733970912086
  H   1.76157475457791      2.98733878940477      3.10939342311096
  H   0.01037447610026      2.89122991747803      3.16856524543948
  H   3.24000152219143     -1.91006045685378      0.62605603649020
  H   1.55195894429556     -2.86288978604492     -1.26774868685401
