39
Coordinates from ORCA-job reaction4-IEIP_ts_guess_scan_1-3_orca
  Ir  0.58069977882190     -0.72777212390180      0.46403274330734
  C   0.02551423433096     -2.80741379600726      0.33741267140226
  C   0.11758615811450     -2.36326449180999      1.70811084736339
  C   2.19508245759146     -2.14164473113386      0.74395824423581
  C   1.28576721075873     -2.64253616927013     -0.26254950353063
  C   1.48812749487012     -2.01080539117685      1.95117422006848
  N   -1.04245625608426      0.17838154896418     -0.51664051231672
  C   -2.31305431446701      0.51977159954426      0.14165967160223
  C   -3.13552263266288      1.54717490262137     -0.61850670991690
  H   -3.96885171011357      1.86274731366233      0.00764324422416
  H   -3.57038332657724      1.14835815142960     -1.53649524797982
  H   -2.55732192244893      2.43965283318780     -0.86009659201204
  C   -3.10931461338033     -0.75192703347068      0.40679980705162
  H   -2.01918566567405      0.95232994741036      1.09961007451340
  H   -4.02260584172780     -0.50418653720217      0.94552720540887
  H   -3.39548705195050     -1.24219353243197     -0.52470348840803
  H   -2.55694371603040     -1.46259601269844      1.01997015794786
  C   -0.82815019787907      0.38340743984072     -1.75744421397143
  C   0.52595725317461      0.14920414848384     -2.21786810881793
  H   -1.59954291960077      0.74905604236128     -2.42927491017540
  C   1.63594988636645      0.54918601654754     -1.48399311750165
  C   2.83514225995356      0.11816271580511     -2.12144103437244
  S   0.93994191167199     -0.68090771197606     -3.65380722684401
  C   2.61244293871023     -0.54696261105280     -3.28565928215397
  H   1.55006265459974      1.40892800167978     -0.69506393060959
  H   3.82469804985041      0.34298066310169     -1.75090204237774
  H   3.34380859752670     -0.95092898408718     -3.96928412647915
  H   -0.86851719170067     -3.16511892423070     -0.15279348099290
  H   -0.66639341631333     -2.39969699938861      2.45041431537838
  H   1.88256839757750     -1.62519480009509      2.88030726084660
  O   1.28181700263148      2.46075455624740      0.27703198411343
  O   0.53825034010545      0.89325661574453      1.68060393705018
  C   0.89338442800491      2.10232379853796      1.38367586017791
  C   0.82731819349044      3.06564168260118      2.53612009474539
  H   0.77664567963619      4.08979492635475      2.17662693968325
  H   1.73355648410853      2.96663245573151      3.13681798756059
  H   -0.01672840639366      2.85791193239351      3.19063205960601
  H   3.23820743190451     -1.90764478722873      0.59057203930590
  H   1.53730029920410     -2.85567262508837     -1.29143777713270
