39
Coordinates from ORCA-job reaction4-IEIP_ts_guess_scan_1-7_orca
  Ir  0.57332722641672     -0.73347140875111      0.48205527891196
  C   0.01561705728957     -2.81093667891827      0.35479554937580
  C   0.10100265232309     -2.36873573026556      1.72589303355473
  C   2.18437940481184     -2.14923078717109      0.77245968047440
  C   1.27931301232471     -2.64714405290049     -0.23929296933668
  C   1.47061473961542     -2.01739118078792      1.97574019028539
  N   -1.04329893288760      0.16675441946064     -0.51348114699874
  C   -2.31894116107142      0.50002302600640      0.14033728397986
  C   -3.13610535410288      1.53782568009352     -0.61195975876146
  H   -3.97123953090182      1.84848658337140      0.01429013946814
  H   -3.56841278671904      1.15084269913086     -1.53614729760849
  H   -2.55473581830633      2.43139256636031     -0.84158294684447
  C   -3.11881173169404     -0.77362522917311      0.38449946067284
  H   -2.03224210353274      0.92124505304870      1.10551813994346
  H   -4.03683259556199     -0.53107421630138      0.91756493499549
  H   -3.39676450267188     -1.25344262733609     -0.55489802952787
  H   -2.57274035811220     -1.49159910557082      0.99476552371119
  C   -0.83031807599351      0.37342367334964     -1.75547902102500
  C   0.52251104322818      0.15856632154845     -2.22302872327183
  H   -1.60835820856201      0.73035905663465     -2.42444005863700
  C   1.62894943905653      0.53435768617212     -1.47172330213234
  C   2.82953090019200      0.12912230200772     -2.12239700655782
  S   0.94050632988139     -0.61412272422620     -3.69006935455353
  C   2.61103324000974     -0.49027452098751     -3.31319113616353
  H   1.54276722245568      1.40535072923961     -0.65614878036666
  H   3.81849695901544      0.34032934828963     -1.74219653204622
  H   3.34506687501152     -0.86496564725137     -4.01055547988013
  H   -0.87635438507015     -3.16642205812193     -0.14079753526526
  H   -0.68694705420849     -2.40519433688360      2.46390584561496
  H   1.86102769520533     -1.63366212920165      2.90733968465373
  O   1.32627173869737      2.43581916808758      0.26649118370278
  O   0.53520845517350      0.90419599549014      1.68273729925868
  C   0.91799304694045      2.09845093464710      1.37640628815838
  C   0.86534829412498      3.08237812438454      2.51069232974571
  H   0.82734602763105      4.10098781622007      2.13434336053860
  H   1.77145691179371      2.98189408575294      3.11144711307391
  H   0.01963304715809      2.89539183366526      3.16909463905089
  H   3.22875492863182     -1.91707375784312      0.62496309174363
  H   1.53531637240798     -2.85964089127005     -1.26721083193748
