39
Coordinates from ORCA-job reaction4-IEIP_ts_guess_scan_12-12_orca
  Ir  0.61123081759559     -0.74515893270213      0.41449092409287
  C   0.15931605097579     -2.85820339159821      0.34170355717410
  C   -0.12066720767285     -2.41756627430065      1.68528893922276
  C   2.12407857772892     -2.05774342061013      1.25655049739515
  C   1.53999261444308     -2.66454313463318      0.09701420529128
  C   1.08742340561208     -1.94170460535382      2.23137693371288
  N   -1.07887720476836      0.10005230878162     -0.50629784272586
  C   -2.35275916661893      0.27401235181133      0.20758426696025
  C   -3.14113733639609      1.49930942521435     -0.23279852763665
  H   -3.97450757942133      1.64639875789509      0.45231703815677
  H   -3.57207487850749      1.39259029087246     -1.22919616482185
  H   -2.53343091310061      2.40415856400949     -0.20870504013855
  C   -3.18116337762221     -0.99934944464681      0.07831476408204
  H   -2.07596320549745      0.40981920956812      1.25425931881896
  H   -4.08558723803621     -0.91857518386410      0.68005105277687
  H   -3.48240321564267     -1.16782164648186     -0.95638714427236
  H   -2.63639693201190     -1.87837185607408      0.41912243806249
  C   -0.93120502674458      0.48222150793754     -1.72241157623560
  C   0.38315543604885      0.31891961689081     -2.26154182024880
  H   -1.74268890891746      0.92653242372240     -2.28952137089946
  C   1.40330143013237      0.00088463946702     -1.36490427290136
  C   2.62372069552899     -0.20080190096298     -2.08048825119394
  S   0.89500202851878      0.39880376120458     -3.87885765364467
  C   2.49221870669198     -0.01189719926128     -3.42423695550311
  H   1.64610231592562      1.18477130228344     -0.67446940654570
  H   3.57209596735381     -0.42198894677610     -1.61230064927857
  H   3.26323359667065     -0.07650852593321     -4.17701073871956
  H   -0.54311016138370     -3.31092574101946     -0.34267318967563
  H   -1.06909985571469     -2.47344268540526      2.19707536378114
  H   1.19822954929565     -1.49308718867380      3.20843833278216
  O   1.76748260938986      2.29925992690634      0.03847096037527
  O   0.60575429294139      1.04891792353074      1.46787615707386
  C   1.17658980655233      2.12370306583311      1.13233586269591
  C   1.17069452538104      3.25477845252232      2.11558960398304
  H   1.04457064454522      4.20735511605193      1.60592622526856
  H   2.13643315272474      3.28644298570083      2.62305313163734
  H   0.39535229995547      3.12527806316565      2.86502580906544
  H   3.16733118338738     -1.82741380726422      1.40715428645114
  H   2.05713263065692     -2.91991582780789     -0.81647899441862
