39
Coordinates from ORCA-job reaction4-IEIP_ts_guess_scan_10-6_orca
  Ir  0.61734574218644     -0.72237898914618      0.43115741424351
  C   0.13044351685659     -2.83561983853831      0.33807414678867
  C   -0.04500489144622     -2.37478369255163      1.69072484853602
  C   2.17316621156083     -2.07710258455709      1.10728460525081
  C   1.48369222225473     -2.65564177080465     -0.01652768808242
  C   1.22473971762683     -1.93547368124581      2.15146580516480
  N   -1.06009487514823      0.12850783125783     -0.51050094578024
  C   -2.33228493492387      0.34669459237228      0.19502801592025
  C   -3.12684455241529      1.53548878789204     -0.32655755644113
  H   -3.95629952815399      1.72895861678070      0.35190202595887
  H   -3.56483819072108      1.35457937247948     -1.30911413006869
  H   -2.52315438098238      2.44216295174523     -0.37178926516641
  C   -3.15735823765426     -0.93502336114551      0.15516595521387
  H   -2.05032816940534      0.55232085087694      1.22863897201875
  H   -4.06419590016957     -0.81047847267635      0.74553611580207
  H   -3.45492017586327     -1.17928367676263     -0.86541750970387
  H   -2.61429441669341     -1.78522503551743      0.56459303285466
  C   -0.90599871504292      0.45269730399901     -1.74071350046630
  C   0.41449834965687      0.27355569775972     -2.26923802735215
  H   -1.71463274255616      0.86701926472931     -2.33459664171292
  C   1.47337323214110      0.13135064021473     -1.37257891799723
  C   2.67850203884581     -0.14637474935260     -2.08769900210134
  S   0.87344242380531      0.09341537207546     -3.89221618831105
  C   2.50119435387970     -0.18997622413043     -3.43658211091289
  H   1.61679565574708      1.13764459768176     -0.61632384954497
  H   3.64735139534476     -0.24772127148608     -1.62055086451987
  H   3.24901019019851     -0.35203214226860     -4.19791947692401
  H   -0.63611017485689     -3.25644370850866     -0.29623298256222
  H   -0.95042087976330     -2.41982727850299      2.27666363292551
  H   1.42086479112093     -1.49584932913274      3.11928504601131
  O   1.70026849547502      2.31690925965395      0.15993075856207
  O   0.55155986040465      1.00934528641403      1.54675955260807
  C   1.10358692690691      2.11579267616279      1.22948622423519
  C   1.03190039847157      3.21515042823235      2.24929481220430
  H   0.91314877565604      4.18007557884880      1.76179172670787
  H   1.97301655105064      3.24671778723246      2.80092938243995
  H   0.22707809171581      3.05383423084812      2.96113141230101
  H   3.22714933645387     -1.85472701819696      1.17027161528979
  H   1.92402252843616     -2.90906836273233     -0.96981637338962
