39
Coordinates from ORCA-job reaction4-IEIP_ts_guess_scan_13-10_orca
  Ir  0.61580230447359     -0.74214370550786      0.39897230057658
  C   0.17307612092076     -2.85979356655084      0.32659890509072
  C   -0.11194388899194     -2.42913193630900      1.67280857868244
  C   2.12986459716165     -2.05005042418432      1.24906423621232
  C   1.55400781362807     -2.65946604782764      0.08763366081890
  C   1.08909730339474     -1.94701220214685      2.22326811764978
  N   -1.08191661484060      0.10329972880766     -0.50684457431212
  C   -2.35097664154153      0.27856375724086      0.21422865678786
  C   -3.13881289033277      1.50645036052175     -0.21942059371945
  H   -3.96952236433456      1.65274474934924      0.46908425821348
  H   -3.57342718947713      1.40354327424344     -1.21464084007169
  H   -2.52945422256982      2.41016536954991     -0.19454226663118
  C   -3.18193663348298     -0.99340087829626      0.08602332786468
  H   -2.06765717485847      0.41082229241333      1.25960290686020
  H   -4.08160867851286     -0.91373426975431      0.69496178747092
  H   -3.49130409338436     -1.15723733992302     -0.94701600665570
  H   -2.63543187650601     -1.87432255458804      0.41904902067134
  C   -0.93755320536857      0.48757244958128     -1.72270822465082
  C   0.37723807999569      0.31601100532921     -2.25766546355120
  H   -1.74697648659376      0.93738461862673     -2.28808359852105
  C   1.38620190738126     -0.01368965626603     -1.34719623327721
  C   2.61347227494504     -0.21880768669654     -2.05669767765424
  S   0.90455541864013      0.39996542125611     -3.86732346970758
  C   2.49591329801278     -0.02326433046952     -3.39962833948136
  H   1.62833857270110      1.17396064104959     -0.70946214653106
  H   3.55663871030973     -0.44499730908555     -1.58032412522003
  H   3.27354948574591     -0.08771399128239     -4.14555340627784
  H   -0.52418563929558     -3.31710020695157     -0.35997962070760
  H   -1.06216111210890     -2.49088562574697      2.18055480915678
  H   1.19438049226722     -1.50124108172366      3.20218710523997
  O   1.74637605621215      2.31534074385951      0.01521388111315
  O   0.61484686861661      1.04836324368190      1.45488588286751
  C   1.17113861628870      2.13096041105084      1.11341721043263
  C   1.16245000632961      3.25699751945444      2.10362150764297
  H   1.04579100665615      4.21330560302383      1.59903282496369
  H   2.12356801380423      3.27941725847676      2.62032334669404
  H   0.38038386226510      3.12694797749935      2.84610462860214
  H   3.17162193382719     -1.81656550485350      1.40514722736684
  H   2.07592592862242     -2.91206819685186     -0.82395752400879
