39
Coordinates from ORCA-job reaction4-IEIP_ts_guess_scan_7-14_orca
  Ir  0.59371225180048     -0.74341888481448      0.48453103522289
  C   0.08226927376481     -2.84070802519904      0.40396660124071
  C   -0.08741525059713     -2.35971643612422      1.75039210478061
  C   2.13708956279877     -2.10888459586281      1.16701670721247
  C   1.43757793109590     -2.68075241418965      0.04520970692744
  C   1.19390031467827     -1.93973517223257      2.20823429819710
  N   -1.05476314399644      0.10373870643871     -0.50485523979283
  C   -2.34337813459931      0.30844062572167      0.17858124470800
  C   -3.13160266255756      1.50185710783857     -0.34317236041098
  H   -3.97039273369374      1.68885554020392      0.32558761722771
  H   -3.55591935201368      1.33107667922205     -1.33343931077949
  H   -2.52754532630175      2.40897146632938     -0.37174316600509
  C   -3.16624056805268     -0.97291371709158      0.11043447180656
  H   -2.08472856958549      0.50563267558175      1.22002237599980
  H   -4.08821897450726     -0.85336889393379      0.67809883851188
  H   -3.43729398536491     -1.21129057031337     -0.91891711210832
  H   -2.63380818388206     -1.82568665336149      0.52837998730390
  C   -0.88992920992627      0.43327787135233     -1.73318573013466
  C   0.42832634102644      0.29185539109136     -2.27579463038204
  H   -1.70690881910227      0.83077937242045     -2.32800478739018
  C   1.51228574825278      0.16035889920019     -1.42056963252612
  C   2.70378461921741     -0.07119457228218     -2.15990160126288
  S   0.85678283365207      0.17989801722390     -3.92196101986849
  C   2.49630615476759     -0.07444692538578     -3.50898562444782
  H   1.65712665054172      1.18357183949494     -0.54891024373931
  H   3.68431063564232     -0.17408547899921     -1.71845099383349
  H   3.23220948429726     -0.19700481077692     -4.28922874856839
  H   -0.69095102942723     -3.25251728224290     -0.22817180809660
  H   -0.99205467914791     -2.38947248987834      2.33869373156733
  H   1.39803059599945     -1.49543280187798      3.17229945398921
  O   1.75818959059399      2.25866575667447      0.17494010857313
  O   0.54369997191787      1.01796518002877      1.56599209697686
  C   1.13509329960255      2.09337297590747      1.24625081772703
  C   1.09995244435216      3.21884719512902      2.23501039060658
  H   0.99747077728214      4.17381368318091      1.72451951851775
  H   2.04754105040582      3.24359110154946      2.77598907836071
  H   0.29850487457124      3.09198759664176      2.95715381473192
  H   3.19307933374589     -1.89394513312375      1.22251206908126
  H   1.87327700274877     -2.94279284354101     -0.90778395992417
