39
Coordinates from ORCA-job reaction4-IEIP_ts_guess_scan_8-9_orca
  Ir  0.60870342148338     -0.72814934073305      0.45918497455822
  C   0.11199983443403     -2.83370888405314      0.35403341423342
  C   -0.04896933321894     -2.36746452306283      1.70703654172325
  C   2.16699020886058     -2.09183286971967      1.10731091612618
  C   1.46159832230343     -2.65923721457724     -0.01397040433773
  C   1.23272886354646     -1.94316824634362      2.15953099535949
  N   -1.05393946787515      0.12304907226029     -0.50556553693388
  C   -2.33217949569545      0.34740502587957      0.18904646643635
  C   -3.11932221871894      1.53553891869031     -0.34544742380390
  H   -3.95180742332536      1.73737207280823      0.32693978383958
  H   -3.55266497587001      1.34978655758369     -1.32912144683595
  H   -2.51170751567730      2.43940382773745     -0.39390866673042
  C   -3.16051625164659     -0.93196420967462      0.15119267933589
  H   -2.05844190740858      0.55928712259052      1.22356993652802
  H   -4.07230268707049     -0.80078008854925      0.73244843293675
  H   -3.44974565585892     -1.18301117983470     -0.87016272187609
  H   -2.62380289134074     -1.78076621189403      0.57194086154006
  C   -0.89486074436200      0.43042528861023     -1.73932964416280
  C   0.42712459101236      0.26338592471280     -2.27155228032650
  H   -1.70712803107600      0.82696691319491     -2.34099615308326
  C   1.50712384373764      0.18627977344861     -1.39859703524777
  C   2.70306239682570     -0.09407117131705     -2.12095121351542
  S   0.86003361564845      0.02920886190823     -3.89893086759277
  C   2.50120875346871     -0.19640777295794     -3.46447161048673
  H   1.62104187612951      1.17054085192924     -0.58742034700299
  H   3.68216135232752     -0.15734394691063     -1.66886471593433
  H   3.23840013945642     -0.37239012045561     -4.23309028650491
  H   -0.66433317433679     -3.24503949358158     -0.27463228471155
  H   -0.94886239762204     -2.40821614805914      2.30199094843647
  H   1.44182498996077     -1.50820788433900      3.12674744257966
  O   1.68852110016489      2.30558469281681      0.17935103835445
  O   0.54380632366677      1.00213822498641      1.57344971729326
  C   1.09528828879518      2.10709435085060      1.25287964093404
  C   1.03061146839393      3.20785793284725      2.27042766207383
  H   0.92364139137443      4.17370286983003      1.78217414635555
  H   1.96953298498489      3.22974984643292      2.82644287282287
  H   0.22151685561801      3.05446939619448      2.97921713724218
  H   3.22193666677239     -1.87020937969385      1.15621399883842
  H   1.89109694213784     -2.90808881955566     -0.97337692846094
