39
Coordinates from ORCA-job reaction4-IEIP_ts_guess_scan_9-9_orca
  Ir  0.60843925191914     -0.72933677989283      0.44948611794883
  C   0.11810029331750     -2.83757969538658      0.35550994470767
  C   -0.06412993230147     -2.37165123406944      1.70578840809403
  C   2.15911754320229     -2.08457293554598      1.13549746991067
  C   1.47397789596096     -2.66154947992946      0.00819913463542
  C   1.20574498216421     -1.93669615958890      2.17341000566570
  N   -1.05986181461412      0.11991111148073     -0.50765074792683
  C   -2.33775846568314      0.33180451870708      0.19082281347679
  C   -3.12956547990311      1.52388410844084     -0.32786733347193
  H   -3.96252565459766      1.71356920646313      0.34737000700549
  H   -3.56232652688522      1.34953901704871     -1.31389187356690
  H   -2.52524663190469      2.43052954547988     -0.36445785406154
  C   -3.16211740127866     -0.94964338299287      0.13728694335344
  H   -2.06408690969995      0.53176179857134      1.22778152562921
  H   -4.07367359240423     -0.82918157773066      0.72126460113730
  H   -3.45153087915013     -1.18831534798379     -0.88695598267251
  H   -2.62202475557429     -1.80216547940141      0.54587472607385
  C   -0.90259154331913      0.44708058728836     -1.73698741352715
  C   0.41754194669568      0.28115901075150     -2.27034134275786
  H   -1.71433224819897      0.85569521349442     -2.33083227486967
  C   1.48484331494518      0.14160955549507     -1.38802024674157
  C   2.68523472071584     -0.12140290805614     -2.11130737253434
  S   0.86663377114115      0.12504994564863     -3.90153586624207
  C   2.49806445247503     -0.15062552648354     -3.46060741871584
  H   1.63302228314179      1.15120963681889     -0.59255446660670
  H   3.65792996244906     -0.22437211915249     -1.65265836070277
  H   3.24188382550208     -0.29974728663572     -4.22851135385739
  H   -0.64600426069436     -3.25664726928483     -0.28289445158131
  H   -0.97272075964341     -2.41369074641900      2.28707664088905
  H   1.39775450405096     -1.49563612308678      3.14142039117677
  O   1.72780510323939      2.29143679770548      0.16356362023020
  O   0.54784191895812      1.01396984371137      1.55150793122635
  C   1.11888406164211      2.10708424515785      1.23296114330335
  C   1.06180305043126      3.21782852389884      2.23969157769375
  H   0.94328795236830      4.17761998538052      1.74189144616083
  H   2.00814186018926      3.25162696203316      2.78218246247866
  H   0.26210574902124      3.06822390191091      2.95958490110799
  H   3.21303526703771     -1.86306900976685      1.20254476515152
  H   1.91867329528429     -2.91552052407940     -0.94290213722053
