39
Coordinates from ORCA-job reaction4-IEIP_ts_guess_scan_1-4_orca
  Ir  0.57849218302708     -0.72893137820205      0.46766841609551
  C   0.02296461504602     -2.80815857606427      0.34109253528677
  C   0.11409898247219     -2.36445302544407      1.71185122552395
  C   2.19241758530079     -2.14300012788511      0.74916973943904
  C   1.28368254000408     -2.64330648615581     -0.25812611016194
  C   1.48450178777895     -2.01207520226310      1.95584192791300
  N   -1.04311598745961      0.17592595097741     -0.51613153007408
  C   -2.31482675189680      0.51563543340349      0.14109040203519
  C   -3.13675252375788      1.54414150644121     -0.61826946873144
  H   -3.97064944051725      1.85870946585938      0.00763746420987
  H   -3.57080492533316      1.14676447701170     -1.53725294005861
  H   -2.55843709775481      2.43702450987447     -0.85808230159528
  C   -3.11130939652777     -0.75657414547558      0.40312305547903
  H   -2.02246322710113      0.94682000433304      1.10013424476397
  H   -4.02565226961896     -0.50979124404468      0.94051550983158
  H   -3.39565793808099     -1.24565941540614     -0.52955938037505
  H   -2.55992756216663     -1.46795404901113      1.01634554351289
  C   -0.82868684697697      0.38150902046045     -1.75707525123201
  C   0.52541021366098      0.15157761051835     -2.21855309762691
  H   -1.60123713177363      0.74554357915483     -2.42847842027823
  C   1.63439882745165      0.54687568580007     -1.48075584593693
  C   2.83404645991953      0.12119977368742     -2.12085102991144
  S   0.94059699633819     -0.66638183062277     -3.66127296739903
  C   2.61259312918009     -0.53456227359443     -3.29076659902858
  H   1.54844619437025      1.40863938497877     -0.68549932024033
  H   3.82338718012895      0.34331732852998     -1.74805541171413
  H   3.34473570928587     -0.93242730928299     -3.97714809659040
  H   -0.87080237860596     -3.16544678609455     -0.14990609157278
  H   -0.67041280292339     -2.40108285794340      2.45356670609652
  H   1.87842793148676     -1.62692403349493      2.88537894975532
  O   1.29413088997400      2.45478245159456      0.27509692291480
  O   0.53651447496561      0.89578993126525      1.68043482293262
  C   0.89982854772373      2.10120483045995      1.38205811848161
  C   0.83657770561594      3.06891717145238      2.53067582231775
  H   0.79128665430061      4.09208037526379      2.16768060016277
  H   1.74149384147198      2.96763332066256      3.13300929392866
  H   -0.00942047117052      2.86718160653273      3.18450894952496
  H   3.23569314528995     -1.90915931354528      0.59656873070968
  H   1.53580114687232     -2.85619534373145     -1.28692503838832
