39
Coordinates from ORCA-job reaction4-IEIP_ts_guess_scan_3-12_orca
  Ir  0.58850515260598     -0.74181199129177      0.51174779925376
  C   0.06129351621229     -2.82940815953100      0.37737247384582
  C   -0.00127761398127     -2.37039719135356      1.74231210953414
  C   2.17274825115396     -2.13586586209184      1.00598646905020
  C   1.38100197346358     -2.66225414061039     -0.08203895126409
  C   1.32659417153199     -1.99103666254060      2.12220380321770
  N   -1.03454179681519      0.12530481056038     -0.49752557089687
  C   -2.31802537540719      0.39831682753971      0.17273846893646
  C   -3.09021470319496      1.55741427456616     -0.43980271444052
  H   -3.92414155939650      1.81045284884501      0.21353290333558
  H   -3.52111080716064      1.31423459093345     -1.41193322377612
  H   -2.47308378013124      2.45024925087094     -0.54211398355309
  C   -3.15497930241616     -0.87493919345463      0.21155403968465
  H   -2.04926174169996      0.67074695762063      1.19442333109821
  H   -4.07283639101838     -0.69649881026531      0.77002341086813
  H   -3.43346815178820     -1.19492432934429     -0.79340466995704
  H   -2.63061713094572     -1.69481515058552      0.70015343111123
  C   -0.85843248644325      0.36613705900760     -1.74267522605163
  C   0.47241066100348      0.20145793308876     -2.26574032774730
  H   -1.66995549596813      0.71721764369068     -2.37403627887812
  C   1.58630553851617      0.37287642673229     -1.45543882482890
  C   2.77316065720525      0.05183561126141     -2.16965004459294
  S   0.86894866088262     -0.28005252660479     -3.85528091626544
  C   2.53640461441842     -0.30542453900681     -3.46322839852881
  H   1.57418944818925      1.30411290901142     -0.59712867418472
  H   3.76831344510759      0.13865117027287     -1.75827218746576
  H   3.25988753731691     -0.56279337469859     -4.22205767445015
  H   -0.76662430993283     -3.20927478013404     -0.20369345437971
  H   -0.86066358111642     -2.40671913801144      2.39538343456196
  H   1.61083991501437     -1.58297229744845      3.08179991717447
  O   1.49302936886753      2.36268365205628      0.20158470675342
  O   0.54692624640688      0.95621927985245      1.64932908496831
  C   1.00491914600803      2.10301250361334      1.31067809967752
  C   0.95750880220255      3.16207374955844      2.37251870555788
  H   0.89479835684269      4.15202749913199      1.92842148402127
  H   1.88095845692567      3.11963716839087      2.95343767717179
  H   0.12956591288732      3.00509652757405      3.05956718041481
  H   3.22829776010488     -1.91199556639149      0.97457475061287
  H   1.74199662454861     -2.88938499081419     -1.07458204958896
