39
Coordinates from ORCA-job reaction4-IEIP_ts_guess_scan_13-1_orca
  Ir  0.63018157842400     -0.71888205712743      0.38740878217142
  C   0.16336639165709     -2.84380384367713      0.31279172215732
  C   -0.03668385099543     -2.39941603639211      1.66773312053787
  C   2.18251861150847     -2.05659336695856      1.11308042968548
  C   1.52287264915139     -2.65165050674900     -0.01671522983350
  C   1.21047076270200     -1.93555982762070      2.14499185524395
  N   -1.06803245751696      0.13190583980857     -0.51775806413658
  C   -2.32772109968429      0.34792337843711      0.20769024380729
  C   -3.12731383112999      1.54209760548930     -0.29303444879017
  H   -3.94902363731508      1.72897384563032      0.39652614671305
  H   -3.57605137970125      1.37083328573860     -1.27248946570615
  H   -2.52364327010960      2.44895389730849     -0.33573122199007
  C   -3.15463354433148     -0.93299666175068      0.16873197541355
  H   -2.02905507418739      0.54356351119440      1.23857745234558
  H   -4.04946967739466     -0.81406209340148      0.77822066644410
  H   -3.47217259014546     -1.16521897610502     -0.84857408745293
  H   -2.60387433352018     -1.78795389760098      0.55725028829486
  C   -0.92435027130092      0.47480994860335     -1.74489560174630
  C   0.39347712135664      0.27544392349807     -2.26821220588211
  H   -1.72833476371362      0.91260212183140     -2.32701572978996
  C   1.41715266792399      0.04924609456593     -1.33419540324296
  C   2.64064851993645     -0.21696641139081     -2.03888362755770
  S   0.89888572103037      0.17969230694751     -3.87795498931848
  C   2.50576630076971     -0.17616574989888     -3.39012778159973
  H   1.59429772563243      1.11046409138642     -0.69917694210363
  H   3.59257733235968     -0.36731276708698     -1.55021575954029
  H   3.27307175192924     -0.31133039790681     -4.13717135409068
  H   -0.58478065017619     -3.28163482458284     -0.33177343016668
  H   -0.95238885893607     -2.45354767231285      2.23630430882983
  H   1.38336394400475     -1.49175426345048      3.11526179615987
  O   1.67027000150463      2.36262771562358      0.09685157736436
  O   0.57803525599975      1.01882317562194      1.49735768325105
  C   1.10217226042312      2.13915026677706      1.17466212520960
  C   1.02931723571033      3.22358018142116      2.21239091478413
  H   0.98305389918166      4.20274840713031      1.74241009249656
  H   1.93727528074190      3.19318960791602      2.81725425541766
  H   0.18098595881051      3.08664059125686      2.87793787578931
  H   3.23394210359502     -1.83075510304376      1.20093301356846
  H   1.98319628580543     -2.90847535912990     -0.95970088273738
