39
Coordinates from ORCA-job reaction4-IEIP_ts_guess_scan_1-6_orca
  Ir  0.57508339953545     -0.73198981450429      0.47717869305393
  C   0.01806290560073     -2.81005897706807      0.35019802999855
  C   0.10565623123203     -2.36736099004069      1.72118126502351
  C   2.18715630018036     -2.14725500842327      0.76424659782862
  C   1.28064700300699     -2.64595305292518     -0.24585060252842
  C   1.47560584387037     -2.01571542453605      1.96880792193395
  N   -1.04343992728859      0.16988199133399     -0.51447509398392
  C   -2.31777775991193      0.50530083407470      0.14046287930590
  C   -3.13651646695352      1.53993430102321     -0.61431736633071
  H   -3.97126135971088      1.85193316299727      0.01177177098843
  H   -3.56937122591041      1.14940544302285     -1.53676999011252
  H   -2.55616798757266      2.43327598027845     -0.84738997994563
  C   -3.11648110380790     -0.76790294216369      0.39064969819590
  H   -2.02918950687282      0.92993232251714      1.10357370775147
  H   -4.03329583585434     -0.52393741282455      0.92512935412793
  H   -3.39654142009745     -1.25088739429064     -0.54649772038900
  H   -2.56863822338508     -1.48363007485407      1.00197621519849
  C   -0.82998047510099      0.37608787505659     -1.75614387969235
  C   0.52335830477488      0.15621799449956     -2.22150493968320
  H   -1.60620172364652      0.73522225396161     -2.42601386937836
  C   1.63045003792036      0.53912548891929     -1.47460171373886
  C   2.83091471908739      0.12698277648774     -2.12143263846818
  S   0.94080835827690     -0.63264236456465     -3.67991386367963
  C   2.61175429268773     -0.50542761463043     -3.30500274107484
  H   1.54401224708156      1.40666828041855     -0.66618069226380
  H   3.81988941986402      0.34239001303339     -1.74366875886069
  H   3.34533171386833     -0.88808420183958     -3.99849341609059
  H   -0.87462690220041     -3.16609789272349     -0.14369124443672
  H   -0.68100008258913     -2.40386244520320      2.46059187601557
  H   1.86740915134335     -1.63155867871374      2.89964896793668
  O   1.31535285474260      2.44239769875007      0.26933175609801
  O   0.53569471529342      0.90146671199136      1.68203622589579
  C   0.91196389916503      2.09955428206704      1.37830855385957
  C   0.85616560524973      3.07791064100524      2.51760391560690
  H   0.81593277446934      4.09813738737697      2.14588695783982
  H   1.76192466734543      2.97683018407719      3.11875874781297
  H   0.01039108425075      2.88610255586562      3.17460167424190
  H   3.23114651360789     -1.91456661907135      0.61484934081002
  H   1.53514796844798     -2.85863726038088     -1.27410551886647
