39
Coordinates from ORCA-job reaction4-IEIP_ts_guess_scan_2-9_orca
  Ir  0.57712257284993     -0.73326711803858      0.49355335106922
  C   0.01956469040557     -2.81148950949669      0.37327880912851
  C   0.08138606579199     -2.36498677683143      1.74310211409135
  C   2.18191405380263     -2.14861363133467      0.82297290141966
  C   1.29350814542871     -2.65111206854140     -0.20104558124691
  C   1.44560526080736     -2.00963050035073      2.01262610336762
  N   -1.04093794358569      0.15196744794490     -0.51109661570570
  C   -2.32042018335455      0.46773392291446      0.14539544472048
  C   -3.12309119071105      1.54296360201447     -0.56995426144384
  H   -3.95617474431316      1.84078042236526      0.06531205818012
  H   -3.55811640891485      1.19705829494856     -1.50894595664665
  H   -2.52895927724397      2.43624182465797     -0.76501130402625
  C   -3.13213499346264     -0.80863686907407      0.32999161484356
  H   -2.04053183480807      0.84725263640774      1.12961173086881
  H   -4.05387112431869     -0.58146410867847      0.86355607926858
  H   -3.40347353782789     -1.24813664406341     -0.63078794927737
  H   -2.59654821078288     -1.55482516353264      0.91509062083509
  C   -0.83999208971600      0.36426773758473     -1.75562360088928
  C   0.50673199479796      0.17066228339759     -2.23901475323891
  H   -1.63054430151697      0.71236797411297     -2.41447981294735
  C   1.61043718173969      0.47722788560326     -1.45287810284764
  C   2.81163302187272      0.10294087961415     -2.11832886355838
  S   0.92902360814488     -0.50160438999484     -3.75163352714482
  C   2.59603768121774     -0.42722093451541     -3.35313501897104
  H   1.53857573924618      1.37090926011811     -0.62516136628607
  H   3.80007528252199      0.27335667067956     -1.71689267949144
  H   3.33159476614367     -0.76018977741078     -4.06983107321232
  H   -0.86319897592984     -3.16967681146307     -0.13666604005864
  H   -0.71911718886508     -2.39821730098855      2.46745846276942
  H   1.82008069703835     -1.62084744693073      2.94868838264570
  O   1.36954665467557      2.41598569752824      0.24665325504345
  O   0.53567287332156      0.92235695253633      1.67785914711701
  C   0.94156696837369      2.10165350563834      1.35972738109847
  C   0.89740108366724      3.10939033873496      2.47215441508912
  H   0.85747190264269      4.12014600664228      2.07534852115090
  H   1.80885399688303      3.02088999663278      3.06675129473009
  H   0.05674952074283      2.93555876671214      3.14024457976906
  H   3.22992564110343     -1.92185977988141      0.69493240327387
  H   1.56600263213192     -2.87074321566191     -1.22308206348749
