39
Coordinates from ORCA-job reaction4-IEIP_ts_guess_scan_4-9_orca
  Ir  0.59385342071673     -0.72951424752406      0.48469689960388
  C   0.05629789048336     -2.81803859029954      0.37011027844375
  C   0.04161717893227     -2.35857742791648      1.73572864685720
  C   2.18829690333361     -2.12874071860194      0.92358642081384
  C   1.35894673828858     -2.65459165389795     -0.13667593144537
  C   1.38283334958618     -1.98161774647951      2.06918059103626
  N   -1.04059952141175      0.13816960110324     -0.50874284701650
  C   -2.31880285212472      0.42371821457043      0.16446559980017
  C   -3.10199024599223      1.56048196158221     -0.47429670451693
  H   -3.93262031778634      1.82689279831130      0.17790128384676
  H   -3.53863816675126      1.28761913533935     -1.43605069912090
  H   -2.49109291912978      2.45390876980852     -0.60535349774591
  C   -3.14776454809378     -0.85263010940236      0.24840441228059
  H   -2.04055822370568      0.72514412707484      1.17545214757733
  H   -4.06373474913858     -0.66011823545369      0.80517497335695
  H   -3.42936817611295     -1.20737813503842     -0.74391400922587
  H   -2.61654544117014     -1.65204475778510      0.76279835121439
  C   -0.86168814074273      0.37040989943306     -1.75415131992550
  C   0.47545238126630      0.18913232805038     -2.25997504386782
  H   -1.66544326876894      0.72468658955652     -2.39325565618630
  C   1.57741268714388      0.38436545691880     -1.43619934387809
  C   2.77585198901840      0.03836382949026     -2.12169473812681
  S   0.89515975478743     -0.35463302244321     -3.82033908114755
  C   2.55839002553930     -0.36776226802740     -3.40287507453118
  H   1.54762568462946      1.30760489171010     -0.61556587932584
  H   3.76431392927011      0.14177800266243     -1.69824309541323
  H   3.29224007245168     -0.65397361033435     -4.14111307293567
  H   -0.79294041944299     -3.19476121688585     -0.18159863459871
  H   -0.79529822653308     -2.39179308668396      2.41743909685578
  H   1.70144143538089     -1.57404733252037      3.01804174852411
  O   1.43828012581516      2.39677978256647      0.21060475887578
  O   0.54051237442971      0.94856508525908      1.64745239950040
  C   0.97631047825901      2.11102847214526      1.32076025445392
  C   0.92846757536817      3.14402119878361      2.40911116894317
  H   0.88803204279688      4.14576698695425      1.98993923962932
  H   1.84003670562167      3.07064194626623      3.00551396675049
  H   0.08688771324723      2.98322321886919      3.07894979059406
  H   3.24231609996009     -1.90549205433318      0.85504126794834
  H   1.68587867057883     -2.88739804282819     -1.13956853789832
