39
Coordinates from ORCA-job reaction4-IEIP_ts_guess_scan_4-6_orca
  Ir  0.59347727727350     -0.72129811056669      0.46362940786455
  C   0.04169123215801     -2.80621376255044      0.36115027824098
  C   0.09306117266187     -2.35246945632944      1.72801058562084
  C   2.19872089548190     -2.13054756931625      0.81730168787741
  C   1.31897919948681     -2.64663703938972     -0.20702236994697
  C   1.45186571567191     -1.98497841974352      2.00090637746157
  N   -1.04471807956070      0.15589753684053     -0.51883393252507
  C   -2.31833878896988      0.46492862384815      0.15072354833134
  C   -3.11950127075465      1.55702608468628     -0.54023389823916
  H   -3.94870449182890      1.84634246892329      0.10397624214161
  H   -3.55981392469617      1.23059823363582     -1.48370472019480
  H   -2.52177518703666      2.45095049458787     -0.72060351078616
  C   -3.13306506007082     -0.81259609720307      0.31418612369542
  H   -2.03095601817277      0.82325104015862      1.14051967505661
  H   -4.04870966750008     -0.59453507846035      0.86183998545161
  H   -3.41497298629551     -1.22935481173887     -0.65362341405143
  H   -2.59337900819176     -1.57341250245878      0.87616786122509
  C   -0.85453484893726      0.37425975033337     -1.76362280647261
  C   0.49081577491805      0.17100406238744     -2.24624366496390
  H   -1.64542647563521      0.73098363558762     -2.41706879564979
  C   1.58654448978866      0.43044225842367     -1.42985173076716
  C   2.79309958457757      0.04939978526454     -2.08424562972552
  S   0.92552296337976     -0.48008199367262     -3.75990702910750
  C   2.58794397625705     -0.44924113802865     -3.33304178798396
  H   1.53122556290510      1.33744892632011     -0.63859752836097
  H   3.77715908914787      0.19297470784830     -1.66219581763280
  H   3.32800741530590     -0.78070549959163     -4.04570821130539
  H   -0.83590009353233     -3.17276416388265     -0.15178243081874
  H   -0.71154773150770     -2.38363070760889      2.44769301978925
  H   1.81808059647973     -1.58519422167031      2.93564744365706
  O   1.36501366471637      2.43531190718107      0.23734457609846
  O   0.53387052532051      0.93017056871655      1.65671036463400
  C   0.93640501626081      2.11356674674669      1.34662404538160
  C   0.88462939595886      3.11293648539533      2.46711089218225
  H   0.85208294068756      4.12696832816305      2.07813907380343
  H   1.78921681276163      3.01606320496277      3.07074786451907
  H   0.03643345303143      2.93704176286069      3.12519138427580
  H   3.24813935322706     -1.90635130456989      0.69769845482949
  H   1.59872745523253     -2.87836468608998     -1.22429156360550
