39
Coordinates from ORCA-job reaction4-IEIP_ts_guess_scan_8-10_orca
  Ir  0.60508284759955     -0.72994835564938      0.46146136176435
  C   0.09889187352244     -2.83397419864070      0.37365126417894
  C   -0.05050001531722     -2.36114005190820      1.72517155175127
  C   2.16215871912676     -2.09697373088117      1.10711926272927
  C   1.44640979044080     -2.66642282053540     -0.00652886381394
  C   1.23630757389850     -1.93902035166753      2.16511920143980
  N   -1.05487613704569      0.12083709626031     -0.50788273770336
  C   -2.33540247549017      0.34038511396711      0.18406273434920
  C   -3.12942109557489      1.52162878818490     -0.35557910864743
  H   -3.96302558030599      1.72148069557479      0.31596373898902
  H   -3.56182063775560      1.32863059129784     -1.33828711529924
  H   -2.52733613987514      2.42897483391988     -0.40823855357512
  C   -3.15729100612200     -0.94328701852386      0.15076895723676
  H   -2.06428450481122      0.55762508448797      1.21827223095029
  H   -4.07271027922236     -0.81251541550866      0.72640107441817
  H   -3.44003143956787     -1.20246148608444     -0.87036708899202
  H   -2.61889833241144     -1.78646467472214      0.58031603900251
  C   -0.89322219310211      0.43698922831220     -1.73941600125027
  C   0.42807183777401      0.27585749831667     -2.27283204670241
  H   -1.70564192520057      0.83646599953211     -2.33885713173318
  C   1.50527430750488      0.17523430457554     -1.39998797238856
  C   2.70184711810191     -0.09296022695276     -2.12474022799853
  S   0.86493581390583      0.08145203870208     -3.90505272978991
  C   2.50310971288502     -0.16142405762042     -3.47140259596382
  H   1.63109166049076      1.16906876130541     -0.57704677098498
  H   3.67956084091721     -0.17231815243370     -1.67223268918491
  H   3.24233171799340     -0.32227625758799     -4.24140476976533
  H   -0.68377546085407     -3.24473274303449     -0.24750526293203
  H   -0.94546496026705     -2.39742903089147      2.32771074310640
  H   1.45443015750105     -1.49971940569998      3.12838894765265
  O   1.70571740928078      2.29398630366613      0.17848499172113
  O   0.54179117650798      1.00609504040987      1.57090591345981
  C   1.10352698794489      2.10391649353356      1.25064527304017
  C   1.04539867824222      3.20914011353557      2.26310137214550
  H   1.00892093074112      4.17878199738934      1.77270239254485
  H   1.95511018792194      3.18269012636086      2.86569301398301
  H   0.19710384935596      3.09456863642807      2.93260863510538
  H   3.21810149616982     -1.87824103268646      1.14686048742218
  H   1.86789740509659     -2.92330976473149     -0.96730749026563
