39
Coordinates from ORCA-job reaction4-IEIP_ts_guess_scan_5-2_orca
  Ir  0.60555646506396     -0.71148930180952      0.43538449998735
  C   0.05776032630936     -2.80072614519217      0.34317343101590
  C   0.11684581518900     -2.34447003200083      1.70870009712128
  C   2.21537131024264     -2.11689246971436      0.78286598692075
  C   1.33098192501604     -2.64003751706502     -0.23375737592697
  C   1.47518018613777     -1.97032392625446      1.97098060757184
  N   -1.04729148973040      0.16570838107600     -0.52551266920064
  C   -2.31410743415290      0.48111415347683      0.15223118954167
  C   -3.11756707581712      1.57107487883938     -0.53893713528302
  H   -3.94326597977857      1.86382481144189      0.10820699931282
  H   -3.56277966714022      1.24113166488816     -1.47893084332689
  H   -2.51970711065124      2.46367214138160     -0.72544956133992
  C   -3.12842010764650     -0.79507225349265      0.32780005237051
  H   -2.01736065842199      0.84298383716939      1.13784387415657
  H   -4.03765096258086     -0.57424945716790      0.88487540983852
  H   -3.42130555397580     -1.21411518503818     -0.63573493977945
  H   -2.58299120148164     -1.55476386267440      0.88584562441251
  C   -0.86069522154295      0.37973534165546     -1.77054032578341
  C   0.48626076184649      0.15759683828251     -2.24467389642859
  H   -1.64653328431156      0.74304822127236     -2.42623446029840
  C   1.57830311207463      0.42502006423203     -1.42304037877152
  C   2.78838966146032      0.02347643309908     -2.06189276205355
  S   0.92700365331735     -0.53852066339910     -3.73361399101025
  C   2.58861547210330     -0.50631259550710     -3.29734760883097
  H   1.52530852682679      1.33187865062735     -0.66884218447195
  H   3.76987140460675      0.17455491974093     -1.63652150746170
  H   3.33058574105661     -0.86012502100008     -3.99710146020418
  H   -0.82211642521454     -3.17144131090401     -0.16281313844909
  H   -0.68298337360371     -2.37516203758664      2.43365669164923
  H   1.84584224911726     -1.56548361202424      2.90178496673074
  O   1.32537445651564      2.46948978458739      0.24273301219993
  O   0.53422215245498      0.92626171473365      1.64445747863841
  C   0.91383164266321      2.12374864036342      1.34789467717032
  C   0.85135740873470      3.09987959347731      2.48955489643807
  H   0.81574416460906      4.12134728517497      2.12088049558800
  H   1.75230925249761      2.99488229626665      3.09718183906177
  H   0.00019995989210      2.90755707077036      3.13943462624032
  H   3.26396721924798     -1.89228534542810      0.65737839137716
  H   1.60526268906650     -2.87732602629797     -1.25118056872319
