39
Coordinates from ORCA-job reaction4-IEIP_ts_guess_scan_2-13_orca
  Ir  0.58043908442068     -0.74642302531966      0.52605531414477
  C   0.04704475166565     -2.83044882055243      0.38917735957695
  C   -0.00105604505158     -2.37224720662831      1.75526956485920
  C   2.16631009714856     -2.14576749744405      0.99987610500843
  C   1.36230310809994     -2.66554754589887     -0.08280110697953
  C   1.33319254973824     -2.00075211240599      2.12472667129051
  N   -1.03211969820056      0.12383094493462     -0.49502562501778
  C   -2.31885680221180      0.40125279094090      0.16790591025419
  C   -3.09083068870730      1.55267872696978     -0.45908656992655
  H   -3.92663853972546      1.81181397936546      0.18946726591138
  H   -3.51927766703203      1.29860786106967     -1.42953019404453
  H   -2.47461022392317      2.44517005727379     -0.56957601358722
  C   -3.15444949512920     -0.87244558067197      0.21773125946165
  H   -2.05426973614530      0.68491137507074      1.18770306967624
  H   -4.07598766397371     -0.68783140317734      0.76807682329866
  H   -3.42640914819613     -1.20570934439280     -0.78471215183647
  H   -2.63265642931702     -1.68528216622676      0.72062461695301
  C   -0.85044741523002      0.35897005417318     -1.74063396100629
  C   0.48126176490554      0.19854304151651     -2.26314219501867
  H   -1.66168659974048      0.70392077872272     -2.37592079311271
  C   1.59981252780457      0.39858165493736     -1.46680058059556
  C   2.78375496417610      0.07990001664126     -2.18585274922789
  S   0.87074235099350     -0.30055619839143     -3.85116946587468
  C   2.54096790664356     -0.29969343714259     -3.47223854343995
  H   1.57844551674915      1.32162325821995     -0.59131093594103
  H   3.78131324489839      0.18412958305666     -1.78439787284666
  H   3.26168814259950     -0.56012407289497     -4.23268905566887
  H   -0.78797265426467     -3.20545374569337     -0.18485170233835
  H   -0.85462959451766     -2.40674804137306      2.41612680352977
  H   1.62847229495641     -1.59711469306199      3.08281512345851
  O   1.49084707196366      2.35873837116686      0.21122609674174
  O   0.54537855351250      0.95206514768571      1.66032319902211
  C   1.00382766009659      2.09855004365279      1.32091648298310
  C   0.95890050567849      3.15726612785795      2.38292201237752
  H   0.89259919088058      4.14709199129076      1.93902132725351
  H   1.88499260829700      3.11665596048826      2.95978780511312
  H   0.13419727180193      2.99883650936587      3.07348745662126
  H   3.22151258513433     -1.92179341119182      0.95679745560544
  H   1.71326467920123     -2.89000995193338     -1.07955809667831
