39
Coordinates from ORCA-job reaction4-IEIP_ts_guess_scan_13-0_orca
  Ir  0.62941678763790     -0.71514446896982      0.38455187554910
  C   0.16053631215704     -2.84175881595280      0.31677980240037
  C   -0.02639982383516     -2.39335937298265      1.67179685507160
  C   2.18756627588473     -2.05349053474066      1.09502440039454
  C   1.51609299433661     -2.65007872373348     -0.02769582380906
  C   1.22657012199012     -1.92904003796519      2.13573179564984
  N   -1.06858262309055      0.13518356579524     -0.52179499745087
  C   -2.32776062019302      0.35520610882680      0.20320401574137
  C   -3.13108100207820      1.54227855035825     -0.30797876030996
  H   -3.95199953128923      1.73389952735308      0.38123363316860
  H   -3.58139390377885      1.35959351820548     -1.28466740890562
  H   -2.52994075335076      2.45024907718939     -0.36104059320264
  C   -3.15150486044394     -0.92820716064608      0.17775644439861
  H   -2.02784246297694      0.56074781993952      1.23180787613960
  H   -4.04690205142815     -0.80453290844201      0.78543920001927
  H   -3.46797120370610     -1.17218043892157     -0.83712759730454
  H   -2.59886008225969     -1.77730048001750      0.57624336914395
  C   -0.92420942471655      0.47317466016225     -1.75009749659471
  C   0.39451459406695      0.27133851991218     -2.27093883718341
  H   -1.72741508404960      0.90900392002887     -2.33477277069812
  C   1.41893918575065      0.05704182737960     -1.33406620843085
  C   2.64291086397044     -0.21490568912942     -2.03669987597298
  S   0.89899022325949      0.15559051539281     -3.87889670283954
  C   2.50750565954210     -0.19134595514789     -3.38794975351006
  H   1.59031108460961      1.10941708449715     -0.70088169273885
  H   3.59542045439081     -0.35636491453483     -1.54651366352676
  H   3.27448277135129     -0.33387633848792     -4.13393411625873
  H   -0.59480523630408     -3.27922691873459     -0.31962339026680
  H   -0.93634006353864     -2.44611371235490      2.24967446161023
  H   1.40939759031442     -1.48233199218616      3.10285110214257
  O   1.65995929387815      2.37176331071634      0.10635502561238
  O   0.57282887610208      1.01677601491160      1.50066331158064
  C   1.09579865249262      2.14059395097568      1.18311538187944
  C   1.02330632016912      3.21556925625846      2.23116382731974
  H   1.00759788681764      4.20060255461602      1.77185730793029
  H   1.91585539601666      3.15798695942128      2.85662958806735
  H   0.15781511969027      3.08919029397857      2.87670570757545
  H   3.23970190599705     -1.82663215163386      1.17121764329258
  H   1.96686042661369     -2.91012644133722     -0.97438283568400
