39
Coordinates from ORCA-job reaction4-IEIP_ts_guess_scan_14-12_orca
  Ir  0.60999418405868     -0.74894786578493      0.38319977420755
  C   0.19370966433251     -2.86763364661358      0.32619862682485
  C   -0.14372919386169     -2.44948960364791      1.66608656861164
  C   2.10160751075635     -2.02789875213362      1.31847798898928
  C   1.58413645177424     -2.65495898685600      0.14369914305099
  C   1.02076826653873     -1.94580314046631      2.25822464495175
  N   -1.09676658171435      0.09293237393471     -0.50420650857541
  C   -2.36732442792844      0.24055220474416      0.21986828614755
  C   -3.15391859775977      1.48394319623667     -0.16898055849229
  H   -3.98754286706030      1.60367304820964      0.52116947459830
  H   -3.58443195446071      1.41990240091878     -1.16925411800554
  H   -2.54430097163051      2.38562756349659     -0.10689954802801
  C   -3.19769511546506     -1.02584381120568      0.04280941821135
  H   -2.08681650388164      0.33410648604925      1.27027182434163
  H   -4.09440225548516     -0.97358564341825      0.65911423738733
  H   -3.51220218085366     -1.14580994762321     -0.99468556785427
  H   -2.64793671238156     -1.91973368217856      0.33361322149828
  C   -0.95337717933221      0.50818690009000     -1.71050372359025
  C   0.35996251699354      0.34270402292163     -2.24714875692398
  H   -1.76256812076255      0.97283064226785     -2.26393501040582
  C   1.34835318670467     -0.06565397316599     -1.34536480969763
  C   2.58269440993574     -0.24421791246296     -2.05112857779653
  S   0.91301352987670      0.52419612871387     -3.84242858008894
  C   2.48726721989006      0.04322362666561     -3.38092481270671
  H   1.66235952654777      1.21315443308240     -0.76470116807709
  H   3.51484193857823     -0.52301071685716     -1.58089864864969
  H   3.27540933579839      0.01227267187543     -4.11792661713394
  H   -0.46772667274640     -3.34647836532676     -0.38073849211128
  H   -1.11360778112550     -2.51977263774773      2.13402850622378
  H   1.08258952235642     -1.49894148981407      3.24014607263610
  O   1.79962872114505      2.31955319968199     -0.04210794932264
  O   0.64583486118481      1.07212229352744      1.40053158177888
  C   1.21874628641839      2.13999583404155      1.06112669646550
  C   1.23783652712498      3.27144319800496      2.04357438354820
  H   1.13065842667294      4.22719905381998      1.53578884122661
  H   2.20415090727787      3.28157971433733      2.55100811410043
  H   0.46081711590651      3.15597308134991      2.79356654865360
  H   3.13362345078410     -1.78134890136701      1.51435974101952
  H   2.14571356579281     -2.90685302730001     -0.74429028701310
