39
Coordinates from ORCA-job reaction4-IEIP_ts_guess_scan_7-1_orca
  Ir  0.61657376151473     -0.70768497648179      0.42439819043427
  C   0.07188268589434     -2.80330482966376      0.34790536411881
  C   0.10584931228126     -2.34284430410760      1.71100378949657
  C   2.22001947135720     -2.10924037139447      0.81773924990681
  C   1.35523853872318     -2.64413177463399     -0.20882973335874
  C   1.45479403489444     -1.95576173481830      1.99106580490822
  N   -1.04627628236919      0.15968291189501     -0.52919748836381
  C   -2.31057684394501      0.46149718902853      0.15920310213267
  C   -3.10927807564767      1.57628461529711     -0.49753464602725
  H   -3.93213467655125      1.85441241253262      0.15958585540350
  H   -3.55798897555234      1.27627361834560     -1.44574769321354
  H   -2.50621759536050      2.47016951961993     -0.65905487677317
  C   -3.13144828125654     -0.81551774297642      0.29634644353763
  H   -2.01124418500773      0.79118927254303      1.15515195358450
  H   -4.03784142519164     -0.60825727209041      0.86324000713060
  H   -3.42920335996725     -1.20197708083359     -0.67921201885700
  H   -2.58746206713977     -1.59544139689190      0.82703475920224
  C   -0.87186402089856      0.38740951280082     -1.77458212799085
  C   0.46978794926039      0.17080082787659     -2.25815891391718
  H   -1.66358870069553      0.75779270971708     -2.41873252663746
  C   1.55020400556417      0.34695481273989     -1.39386182061530
  C   2.76489506743885     -0.02954531466051     -2.04214909741829
  S   0.92318615474816     -0.42423216285810     -3.78199148914178
  C   2.57711102390338     -0.46090747501697     -3.31706540967968
  H   1.52215970072252      1.28009027774908     -0.66143899905751
  H   3.74155620732661      0.06972086683402     -1.59122759319228
  H   3.32417795585925     -0.77672777803613     -4.02941867243529
  H   -0.79705670172298     -3.18146367414279     -0.17129566553547
  H   -0.70660753632304     -2.37073408752466      2.42162305389347
  H   1.80707722369330     -1.54132184125162      2.92482920549437
  O   1.35094009007181      2.46496961648300      0.21838583496105
  O   0.53491786175946      0.94106168323572      1.62542262776387
  C   0.92557793222515      2.13138998875483      1.32352888579644
  C   0.86236895881998      3.12016031945200      2.45415050717056
  H   0.83660236124897      4.13816184761725      2.07529221618506
  H   1.75845239157878      3.01440675957653      3.06875310484948
  H   0.00530761570265      2.93986781771017      3.09962043259237
  H   3.27204775951635     -1.89030061567063      0.71414163945099
  H   1.64743071352404     -2.89371218675513     -1.21818315579887
