39
Coordinates from ORCA-job reaction4-IEIP_ts_guess_scan_6-2_orca
  Ir  0.61058512758153     -0.70977394423330      0.43164438255147
  C   0.06445725588817     -2.80206972638584      0.34677566799214
  C   0.10943846321192     -2.34359001893628      1.71114077122115
  C   2.21698765768288     -2.11321176956935      0.80392822935976
  C   1.34341237985924     -2.64213520883001     -0.21867817539311
  C   1.46289370639655     -1.96310395043708      1.98384511170044
  N   -1.04720592517744      0.16156361723476     -0.52659595421133
  C   -2.31348951679257      0.46848179601757      0.15604550722331
  C   -3.11349180548161      1.57316046733583     -0.51580376833371
  H   -3.93820983844096      1.85741780207175      0.13635152041721
  H   -3.55977641625501      1.26080690355869     -1.46121740686258
  H   -2.51233345606444      2.46655084203680     -0.68705460485989
  C   -3.13150716945310     -0.80857222941865      0.30769457530950
  H   -2.01660891210360      0.81135383659839      1.14831806278597
  H   -4.03992069239546     -0.59612064254016      0.86937815230375
  H   -3.42578510799481     -1.20841770618583     -0.66353083911518
  H   -2.58738505844975     -1.58020716159063      0.85032838857395
  C   -0.86705047993003      0.38271458718076     -1.77194210258322
  C   0.47715050137123      0.16548610316943     -2.25164252598056
  H   -1.65665494426181      0.74852970100321     -2.42151102638221
  C   1.56367414901088      0.38516751119621     -1.40729663935801
  C   2.77579252478294     -0.00245719832206     -2.05193849167167
  S   0.92394081583698     -0.47527652988588     -3.76125638810019
  C   2.58172337897606     -0.47909495466808     -3.30983776643947
  H   1.52343854692413      1.30612963007103     -0.66049966826281
  H   3.75507295263031      0.12106031772015     -1.61282024738741
  H   3.32617333296314     -0.81183614969796     -4.01724073884908
  H   -0.80937558726148     -3.17657327364436     -0.16683657748849
  H   -0.69747982871011     -2.37305826780607      2.42810658021458
  H   1.82334820207949     -1.55352669330174      2.91661106212015
  O   1.34478434663449      2.46413747013345      0.22955796095586
  O   0.53453962587780      0.93532650453746      1.63516165041940
  C   0.92344952713770      2.12736115277651      1.33496809517483
  C   0.86132429268875      3.11248374836403      2.46868035329046
  H   0.83232808777277      4.13145430886432      2.09262565195422
  H   1.75940309062367      3.00718525126468      3.08047312018020
  H   0.00656019387799      2.92872099159384      3.11622938615772
  H   3.26749158683718     -1.89150387701945      0.69047465063628
  H   1.62767500212633     -2.88537329025612     -1.23189588926343
