39
Coordinates from ORCA-job reaction4-IEIP_ts_guess_scan_3-13_orca
  Ir  0.58700687441959     -0.74476168530395      0.51927907043765
  C   0.06645689214914     -2.83356183554090      0.38278044207253
  C   -0.02328786467662     -2.37150572999353      1.74519872430323
  C   2.16476688230629     -2.13382494100309      1.05016651934996
  C   1.39504739361531     -2.66521734003870     -0.05059402847695
  C   1.29547721391804     -1.98703609199812      2.14875867825466
  N   -1.03455993616280      0.11871774059795     -0.49455537179186
  C   -2.32061109693824      0.38146386484692      0.17547305209183
  C   -3.09012595101640      1.55147051239279     -0.42019431024987
  H   -3.92574807708024      1.79440389539728      0.23478680069160
  H   -3.51823471075130      1.32507600542397     -1.39756189214093
  H   -2.47186745395017      2.44524127370206     -0.50609508702972
  C   -3.15903756600946     -0.89133147799594      0.18868746245080
  H   -2.05653389741912      0.63729295212459      1.20262727706749
  H   -4.07844976410110     -0.72303534670491      0.74782473029118
  H   -3.43490390869772     -1.19205801503644     -0.82293342771811
  H   -2.63668817395917     -1.72116486269692      0.66239877899427
  C   -0.86091843472270      0.36842059599089     -1.73885237054849
  C   0.46632114797594      0.21211336161076     -2.27020470515202
  H   -1.67621064772138      0.72069262190740     -2.36474178807893
  C   1.58370182566902      0.35006752069244     -1.45958610366257
  C   2.76592445329853      0.04621924388733     -2.18760767833571
  S   0.85456049953808     -0.21725840902732     -3.87740037719400
  C   2.52222937270362     -0.26450264722009     -3.49256018042492
  H   1.59217689351692      1.28693907810538     -0.58336122863251
  H   3.76317754974865      0.11249668730863     -1.77753467499936
  H   3.24194290555778     -0.49963555572025     -4.26211222238772
  H   -0.74862972187696     -3.21775066124330     -0.21331352245574
  H   -0.89459434070092     -2.40840072379402      2.38221283610778
  H   1.55994352814114     -1.57499003578310      3.11234501746942
  O   1.54453633670849      2.34027309722546      0.20121811152330
  O   0.54563820908962      0.96520989482311      1.64333639582447
  C   1.02897624950481      2.09933060338036      1.30417093120502
  C   0.98081510841095      3.17260462510277      2.35098291683291
  H   0.91830333374209      4.15632393070624      1.89295878488024
  H   1.90464457424732      3.13914541954032      2.93181749166082
  H   0.15242772900682      3.02488593615072      3.03928736574877
  H   3.22056996427614     -1.90954848667524      1.03933114685680
  H   1.77512661824001     -2.89361501514152     -1.03569343483532
