39
Coordinates from ORCA-job reaction4-IEIP_ts_guess_scan_9-3_orca
  Ir  0.62582995224514     -0.71377094793945      0.42696479380801
  C   0.10650216907819     -2.82134324315930      0.34146179948421
  C   0.04221923708404     -2.36061881169941      1.70256294644086
  C   2.21141904807183     -2.09666173802388      0.95232497053092
  C   1.42565062937846     -2.65179677458240     -0.12344962797197
  C   1.35769525219247     -1.94791827647706      2.06811013235444
  N   -1.04649786567145      0.13934807126925     -0.52081192190369
  C   -2.31005151430790      0.40883548731321      0.18284989042999
  C   -3.09349622432654      1.57735944858182     -0.39639100916851
  H   -3.91449422913196      1.81961983346192      0.27696456725305
  H   -3.54272002330024      1.34855326051533     -1.36374568404072
  H   -2.47818846172515      2.47180881586266     -0.49596127354338
  C   -3.14759438711545     -0.86442204891844      0.22453970006234
  H   -2.01336314983817      0.66507994239375      1.20075769906695
  H   -4.04840209110785     -0.69333492510963      0.81222556391382
  H   -3.45538542804834     -1.16768469365802     -0.77698624544857
  H   -2.60951848096592     -1.69198001843166      0.68434687510970
  C   -0.89050445743662      0.39883561719232     -1.76487163097440
  C   0.43976509417851      0.20035301019351     -2.27337963093129
  H   -1.69524699751968      0.78283187188492     -2.38414914983310
  C   1.50732973160174      0.22510266944878     -1.37429469617778
  C   2.72299183756012     -0.09295320777410     -2.05368277753565
  S   0.90208760291441     -0.19218879359868     -3.85681907821270
  C   2.54480751147250     -0.33783076894611     -3.37936338097176
  H   1.53248520276918      1.20385711446970     -0.64661560353929
  H   3.69548390654187     -0.08411651218127     -1.58334417051863
  H   3.29616167349446     -0.57323180697864     -4.11775632323673
  H   -0.71734196016315     -3.21867379819056     -0.23377268974683
  H   -0.81605778978842     -2.39702491408366      2.35640204188248
  H   1.63776334097433     -1.52124432856489      3.02083441857310
  O   1.45329239729536      2.41377286798022      0.16152898566030
  O   0.54972604165168      0.96932758711475      1.59527475180101
  C   0.98278498123534      2.13204467078738      1.26809216609254
  C   0.91844425878759      3.17052727143273      2.35192031798255
  H   0.89103930784796      4.17101124719111      1.92883037575315
  H   1.81678418348710      3.09395936301893      2.96742597565366
  H   0.06231471654335      3.01597112358222      3.00468107873500
  H   3.26804692795088     -1.87828475386667      0.92739898446338
  H   1.78760809609035     -2.90392894151067     -1.10936307129644
