39
Coordinates from ORCA-job reaction4-IEIP_ts_guess_scan_1-14_orca
  Ir  0.56984323584205     -0.75119954412274      0.54163715171552
  C   0.02156944661796     -2.83001671651349      0.41410116499310
  C   0.00312531572789     -2.36889603914344      1.78000760637389
  C   2.15622283707140     -2.16065792745417      0.98307624621561
  C   1.32768620745810     -2.67338776569494     -0.08480442533743
  C   1.34863200600683     -2.00931526466607      2.12446179079242
  N   -1.03013041643452      0.12078356047612     -0.49536648273428
  C   -2.32132720611436      0.40409534337153      0.15725694478512
  C   -3.09702188480840      1.53936771226045     -0.49389794059759
  H   -3.93492931452920      1.80776144291522      0.14815534907880
  H   -3.52320462239170      1.26438102867171     -1.45968919119377
  H   -2.48479290402838      2.43240153389053     -0.62116759329311
  C   -3.15236362320058     -0.87142711812928      0.23049531458346
  H   -2.06179100343970      0.70881445286652      1.17243008279149
  H   -4.08002744037353     -0.67627411617716      0.76672796966294
  H   -3.41331469726113     -1.23104628303865     -0.76576854824326
  H   -2.63347022720962     -1.66890962347673      0.76015800211086
  C   -0.84003626906485      0.35111843281429     -1.74097330349115
  C   0.49309540694461      0.19781182471805     -2.26154391681658
  H   -1.65022762215420      0.68973489534398     -2.38114246565774
  C   1.61415627927433      0.42195745841681     -1.47630550899628
  C   2.79679135072065      0.11439091757723     -2.20108336146419
  S   0.87881705847998     -0.30451919437171     -3.85172363363594
  C   2.55076215901228     -0.27728744119210     -3.48357916638724
  H   1.58229969291041      1.33205389232864     -0.57658860909822
  H   3.79572866825812      0.23457817012686     -1.80753235802722
  H   3.27074641268583     -0.53322123879557     -4.24627792997946
  H   -0.82768000129725     -3.19812482433497     -0.14328071728915
  H   -0.83797878945624     -2.39693813764877      2.45705310616278
  H   1.66618872695390     -1.60932338910306      3.07685072083503
  O   1.49887141524513      2.35062838315465      0.22686998780738
  O   0.54004631355723      0.94831284951510      1.67247363221669
  C   1.00646165409167      2.09196170312349      1.33514367813774
  C   0.96519084119287      3.15001986035590      2.39762511176359
  H   0.91544865419431      4.14127874239170      1.95486241060093
  H   1.88503896977541      3.09666973283342      2.98342982373731
  H   0.13215549743233      3.00076019286612      3.08025758167073
  H   3.21081453250168     -1.93897413385598      0.91641993991165
  H   1.65797335980871     -2.90017336229953     -1.08802834370447
