39
Coordinates from ORCA-job reaction4-IEIP_ts_guess_scan_0-8_orca
  Ir  0.56655279227662     -0.73876612788688      0.49836925666101
  C   0.01104614398052     -2.81489015320497      0.35786699095560
  C   0.09433570233612     -2.37763293681158      1.73114630653012
  C   2.17889066906178     -2.15394147381309      0.78299527937495
  C   1.27531498065185     -2.64668111585662     -0.23291419774373
  C   1.46420458292727     -2.02874575899862      1.98596897225843
  N   -1.04067287207365      0.16433328273591     -0.50713097302341
  C   -2.31902947001751      0.49878050675247      0.14147738111939
  C   -3.13162974566288      1.53823558415771     -0.61356741566452
  H   -3.96790010821772      1.85091450110064      0.01014963209684
  H   -3.56210068662038      1.15214755295153     -1.53895373918941
  H   -2.54734058686144      2.43023179883771     -0.84178549632143
  C   -3.12131782175946     -0.77414735679169      0.38133090664279
  H   -2.03643555831367      0.91924641482864      1.10825159007203
  H   -4.04198582619786     -0.53110999141269      0.90959572397762
  H   -3.39461426699560     -1.25367144010943     -0.55958496705027
  H   -2.57913182728995     -1.49275727147433      0.99439806183936
  C   -0.82467908355788      0.36737164783181     -1.74933712040734
  C   0.52794048470902      0.15646897360001     -2.21890566789032
  H   -1.60372893624982      0.71977690254954     -2.41971596119533
  C   1.63798235987210      0.55543620986571     -1.48583813351657
  C   2.83512121770378      0.15231253810966     -2.14298035185002
  S   0.93878138700638     -0.62851790863288     -3.68349714382151
  C   2.61091112588454     -0.48526102617116     -3.32348947283362
  H   1.54501387661719      1.41965412703864     -0.65853949415885
  H   3.82604587239159      0.37657750916100     -1.77552027514363
  H   3.34203132599770     -0.86308992084306     -4.02225303660349
  H   -0.87995985964179     -3.16859508394699     -0.14068593172640
  H   -0.69519284425860     -2.41703442760386      2.46742679799926
  H   1.85321642972375     -1.65014955946404      2.92024049158403
  O   1.32075236297813      2.42756123235833      0.26560017728352
  O   0.53892615039075      0.90097658603329      1.69314830263238
  C   0.91838301932861      2.09441362907537      1.37915981718187
  C   0.86950711330926      3.08365983032582      2.50867442383891
  H   0.82486799110185      4.10017057691101      2.12738227366712
  H   1.78034724428506      2.99000491174479      3.10336604502745
  H   0.02923414653199      2.89652210758586      3.17390592291187
  H   3.22291184966573     -1.91890753873105      0.63706024021708
  H   1.53277069498664     -2.85170730180253     -1.26207510573178
