39
Coordinates from ORCA-job reaction4-IEIP_ts_guess_scan_12-6_orca
  Ir  0.61924049029133     -0.72767677523856      0.40722922726438
  C   0.15301457889215     -2.84698759225360      0.32883356698651
  C   -0.06880429162907     -2.39838075643003      1.67929605710456
  C   2.16040124088084     -2.06131894265333      1.16050219750248
  C   1.51866323720592     -2.65699179884911      0.02153029041237
  C   1.17139421287416     -1.93578748039348      2.17586235154331
  N   -1.07064428007159      0.12182261473352     -0.51266250587987
  C   -2.33867177610861      0.32215901063288      0.20392195581667
  C   -3.13556815501325      1.52416331171116     -0.28244513285767
  H   -3.96365776518220      1.69761935234265      0.40292003361562
  H   -3.57504538546803      1.37076940288708     -1.26901399419396
  H   -2.53230615572410      2.43205037809987     -0.30339080563377
  C   -3.16325286721394     -0.95872412852735      0.13419603210033
  H   -2.05218918024866      0.50090930893273      1.24140316294365
  H   -4.06550724649520     -0.85240547681904      0.73509033713454
  H   -3.46821457925562     -1.17403224758250     -0.89067724007232
  H   -2.61548753400334     -1.81965318405121      0.51375681460205
  C   -0.92230665734967      0.47725698434638     -1.73587144103625
  C   0.39514152025215      0.29600391384402     -2.26566430357681
  H   -1.72967074274711      0.91351524683679     -2.31485459269168
  C   1.42506335106559      0.05403790129261     -1.35054656484796
  C   2.64256741245821     -0.19565675714503     -2.06263310755746
  S   0.89180878669553      0.24294873844083     -3.88403997575909
  C   2.49957149885464     -0.12094740991533     -3.41359646629989
  H   1.61730463071167      1.13021382786488     -0.66170925488539
  H   3.59703456947072     -0.36133945154920     -1.58403361051266
  H   3.26356754035135     -0.23862608130606     -4.16700044220303
  H   -0.58437874822688     -3.28602507694276     -0.32718291253032
  H   -0.99319664291527     -2.45152830687105      2.23372264236297
  H   1.32855905974565     -1.48965167605394      3.14776890773603
  O   1.72200763331003      2.31887180301984      0.09745712330495
  O   0.57651063406796      1.02640552008642      1.50158271848091
  C   1.13206086266543      2.12408633485653      1.17583196949336
  C   1.08198887572559      3.23282559833685      2.18654963970123
  H   0.96991302072726      4.19545443790949      1.69306912383830
  H   2.02776995455727      3.25717024117908      2.73053173087855
  H   0.28094386238572      3.08496227373550      2.90537881409771
  H   3.21022847984823     -1.83471849101686      1.26387851585024
  H   1.99351661461517     -2.91360457749064     -0.91425078223259
