39
Coordinates from ORCA-job reaction4-IEIP_ts_guess_scan_9-2_orca
  Ir  0.62675421241011     -0.71136278739233      0.42263050484701
  C   0.10407115303588     -2.81875493009002      0.34132957999871
  C   0.05498193812217     -2.35748446726828      1.70271278804887
  C   2.21591945275283     -2.09658946072820      0.92919702798120
  C   1.41787527213326     -2.65047460800505     -0.13854191905752
  C   1.37539564697870     -1.94670485377345      2.05430224809992
  N   -1.04611225909294      0.14307731243036     -0.52359619504167
  C   -2.30842547025551      0.41804262685483      0.17991734183212
  C   -3.09362735205203      1.58047346795893     -0.40869076089821
  H   -3.91380393210799      1.82822708537751      0.26367710796558
  H   -3.54420377129866      1.34242565193195     -1.37320712154008
  H   -2.47919400491207      2.47450227656323     -0.51713810511853
  C   -3.14454704115073     -0.85560928240973      0.23547957698260
  H   -2.00941824024172      0.68349876454147      1.19478319430230
  H   -4.04482698958992     -0.67898728225271      0.82230012545870
  H   -3.45313060828175     -1.16972419189402     -0.76244067297689
  H   -2.60520979477238     -1.67753372801157      0.70384198701508
  C   -0.88894487282725      0.39775582216224     -1.76818385908359
  C   0.44274073589412      0.19481076892769     -2.27290504299742
  H   -1.69179801878388      0.78092849784076     -2.39037949703409
  C   1.51013208982614      0.23581699073755     -1.37335258701908
  C   2.72687329874552     -0.09132780797249     -2.04725224178786
  S   0.90625468621366     -0.22538640553164     -3.84838451590115
  C   2.54962220858782     -0.36022430754197     -3.36804276867582
  H   1.52784911075096      1.20912241981393     -0.65272192222277
  H   3.69907141633866     -0.07193609997292     -1.57661759703580
  H   3.30133893785843     -0.60741308402022     -4.10220772085269
  H   -0.72684474633557     -3.21433980538497     -0.22489455625147
  H   -0.79643604731920     -2.39231287083610      2.36556027817712
  H   1.66649459398972     -1.52065114273632      3.00396387426732
  O   1.43017791387588      2.42658710834146      0.16785233768942
  O   0.54746527394060      0.96519026146015      1.59781720964258
  C   0.97008800613110      2.13415454517110      1.27468621615876
  C   0.90450896838396      3.16294909197986      2.36804769864632
  H   0.87791027984208      4.16714005526793      1.95386137594593
  H   1.80155144369381      3.08038985090826      2.98468550383883
  H   0.04735724191813      3.00309387959236      3.01832588848137
  H   3.27227868535010     -1.87843220759076      0.89230990670846
  H   1.76918061224798     -2.90374719444882     -1.12798457859359
