39
Coordinates from ORCA-job reaction4-IEIP_ts_guess_scan_2-3_orca
  Ir  0.58638226700067     -0.72390399929584      0.45441867684100
  C   0.02989274592462     -2.80462606568557      0.33953381492312
  C   0.11940519879108     -2.35650409442687      1.70839084014273
  C   2.19902193956617     -2.13792658658819      0.74587537596834
  C   1.29152669222867     -2.64351976042068     -0.25970166624748
  C   1.48864698294237     -2.00095188844020      1.95094614838647
  N   -1.04431675356848      0.17645857442888     -0.52088915494783
  C   -2.31375037257199      0.51335562758733      0.14170632814440
  C   -3.13560016657994      1.54871953650465     -0.60844031419789
  H   -3.96737388009719      1.86054055640935      0.02168471893397
  H   -3.57284677194899      1.15890774115085     -1.52917143912447
  H   -2.55601481637098      2.44211271200934     -0.84324164985117
  C   -3.11155131468051     -0.75957494386605      0.39628019149912
  H   -2.01836255846714      0.93711745011495      1.10305202923144
  H   -4.02381688097480     -0.51532501976762      0.93834086544769
  H   -3.39948408421203     -1.24098264594494     -0.53927967913659
  H   -2.55930066509372     -1.47653252347955      1.00213205409847
  C   -0.83530784318980      0.38388591951152     -1.76246540271047
  C   0.51785350851769      0.15240875295370     -2.22458038986867
  H   -1.60918500331161      0.74926480407883     -2.43146301708398
  C   1.62323649360625      0.52251574027210     -1.46730029310753
  C   2.82585253042358      0.09747187815869     -2.10304266395588
  S   0.93962224736969     -0.64802509484319     -3.67281428589376
  C   2.60968750446772     -0.53726542450076     -3.28517775715984
  H   1.54365307153849      1.39276168660553     -0.68429357590552
  H   3.81326220771916      0.30561000827516     -1.71732855079919
  H   3.34426105019237     -0.93003055991543     -3.97186789326524
  H   -0.86325579476404     -3.16404383850115     -0.15108274434618
  H   -0.66568016387035     -2.39003393448998      2.44953465315711
  H   1.88134898659971     -1.61048188728431      2.87879578806671
  O   1.29546736880208      2.46326963826018      0.27261911055757
  O   0.53552248663560      0.89994844377618      1.67135577314119
  C   0.89905207820867      2.10614220302177      1.37765682343784
  C   0.83303121453028      3.07062014155628      2.52911676834151
  H   0.78818423567507      4.09487469137118      2.16918517827319
  H   1.73662935969725      2.96770506510280      3.13314073279015
  H   -0.01434029443733      2.86670813818986      3.18052072083649
  H   3.24321532701857     -1.90736820455870      0.59509059395766
  H   1.54480187668315     -2.86411278733010     -1.28649663857447
