39
Coordinates from ORCA-job reaction4-IEIP_ts_guess_scan_8-12_orca
  Ir  0.60116632232255     -0.73725351793387      0.46857951282649
  C   0.10886716542394     -2.84093074321382      0.37307512744860
  C   -0.08601377594695     -2.37092083060093      1.72040568593124
  C   2.14420260065822     -2.09174733868444      1.17251538863490
  C   1.46897623765760     -2.66823112885448      0.03935651643463
  C   1.18079246318841     -1.93869481982550      2.20013880494648
  N   -1.05824655552908      0.11036053729584     -0.50343765061945
  C   -2.34197642228442      0.31426494985877      0.18803005035351
  C   -3.12986118894445      1.51263683276775     -0.32250706154767
  H   -3.96646197384799      1.69594451986052      0.34997880468786
  H   -3.55704539770301      1.34988867062929     -1.31290265246573
  H   -2.52424548988257      2.41884855046541     -0.34594015345110
  C   -3.16670086405996     -0.96577484890069      0.11471820530879
  H   -2.07702184482074      0.50366989314439      1.22926603948336
  H   -4.08308933099559     -0.85134807629679      0.69237504102788
  H   -3.44766275082068     -1.19365210601226     -0.91434258892298
  H   -2.63048203083059     -1.82311037630434      0.51841577727369
  C   -0.89880977325318      0.44190046681520     -1.73175652454950
  C   0.41934932762762      0.28988813986938     -2.27270100541943
  H   -1.71440254952055      0.84611529628455     -2.32365294643847
  C   1.49552313437816      0.14527129184507     -1.40651244910659
  C   2.68981763515743     -0.10055031751016     -2.14081726087924
  S   0.85616521334170      0.16737022216373     -3.91327552873823
  C   2.49093931296375     -0.10612673435796     -3.49014331877375
  H   1.65136805153429      1.16656892047293     -0.57069287694502
  H   3.66669983788220     -0.21016823414130     -1.69279942501695
  H   3.22967714471954     -0.23874703010058     -4.26599595587909
  H   -0.64936788025325     -3.25960740815849     -0.27251097333406
  H   -1.00021501324329     -2.41039572136107      2.29306621894643
  H   1.36393401531105     -1.49623807622199      3.16924796615648
  O   1.75315775540255      2.26927373062393      0.16332551079258
  O   0.54964416920023      1.01910121011468      1.55582925425859
  C   1.13481344632548      2.09972264751835      1.23430202454617
  C   1.09193110574561      3.22283340266955      2.22633154703895
  H   0.96520202906657      4.17609246791107      1.71786400923404
  H   2.04628909230350      3.26512005779433      2.75396478949056
  H   0.30240762609038      3.08148805334758      2.95879291774324
  H   3.19767857415920     -1.87110162831143      1.24867249036779
  H   1.92237053147632     -2.92257086466220     -0.90752313084501
