39
Coordinates from ORCA-job reaction4-IEIP_ts_guess_scan_2-14_orca
  Ir  0.57928937117741     -0.74948335312434      0.53416296592327
  C   0.05319221753752     -2.83492461524625      0.39527505760063
  C   -0.02474651477495     -2.37287873880335      1.75868352489308
  C   2.15844371839479     -2.14336076664879      1.04846797847755
  C   1.37840104881644     -2.66887202213700     -0.04837134119881
  C   1.29982401859815     -1.99576077774442      2.15415075817423
  N   -1.03180038093511      0.11658322165654     -0.49181522168920
  C   -2.32122431720068      0.38277050317218      0.17118416107686
  C   -3.08979007231814      1.54715236978445     -0.43653312385018
  H   -3.92734987171527      1.79517561146961      0.21408373409450
  H   -3.51529930564551      1.31221206732296     -1.41302649339825
  H   -2.47195458833466      2.44060965129133     -0.52846389087040
  C   -3.15881657367877     -0.89041905184544      0.19182352436942
  H   -2.06165541133176      0.64721974579602      1.19736701200302
  H   -4.08172018014601     -0.71718444318590      0.74366123025252
  H   -3.42846594638200     -1.20132787500153     -0.81841022974667
  H   -2.63915997444738     -1.71515598938299      0.67723225010110
  C   -0.85317390927129      0.36131276464950     -1.73659963136879
  C   0.47437905775977      0.20998782890644     -2.26867993778384
  H   -1.66870389327338      0.70756901630074     -2.36574045055244
  C   1.59743856033853      0.37366380046460     -1.47171472509338
  C   2.77574388082153      0.07312503478047     -2.20640358035729
  S   0.85345133943852     -0.23263612544226     -3.87661718309222
  C   2.52427641147901     -0.25637327435055     -3.50558860564670
  H   1.59947259142936      1.30213030422196     -0.57621840185826
  H   3.77594137270464      0.15493608222452     -1.80636783679514
  H   3.24025044441957     -0.49314751225271     -4.27815634658109
  H   -0.76796180817168     -3.21474239704417     -0.19526967103361
  H   -0.89151432397241     -2.40790089804331      2.40207810716635
  H   1.57344268878188     -1.58738936314973      3.11670872164309
  O   1.54814492896467      2.33470449343141      0.21191610311921
  O   0.54360958430256      0.96196988698641      1.65352205408750
  C   1.02980260848761      2.09473728072491      1.31413915273721
  C   0.98231527222357      3.16883045283634      2.35985463434423
  H   0.91845638850821      4.15201646182180      1.90083458177291
  H   1.90714875474042      3.13683707878543      2.93920110509166
  H   0.15510361278144      3.02124003248086      3.04956794614313
  H   3.21417468675351     -1.91906067055484      1.02789329230340
  H   1.75040454313990     -2.89497578515091     -1.03709109445860
