39
Coordinates from ORCA-job reaction4-IEIP_ts_guess_scan_4-1_orca
  Ir  0.60181639815595     -0.71310480834731      0.43596438649442
  C   0.05067323406844     -2.79961775070093      0.33887681641692
  C   0.12604393169904     -2.34425676805757      1.70494822115384
  C   2.21405482848698     -2.12174186587399      0.75763219382384
  C   1.31741065621779     -2.63979862792773     -0.25111039486071
  C   1.48965344049060     -1.97720951879769      1.95468085151577
  N   -1.04628366999460      0.17229363688012     -0.52589704132390
  C   -2.31256987116679      0.49801569168803      0.14774499363394
  C   -3.12264991950171      1.56777855808623     -0.56645882090776
  H   -3.94885299761142      1.87042107013996      0.07544600668684
  H   -3.56751465813653      1.21457834588366     -1.49821424977265
  H   -2.53039157874233      2.45961368361564     -0.77366049773847
  C   -3.12110182958493     -0.77677032859920      0.35590403777546
  H   -2.01425687310482      0.88434420183181      1.12362591208163
  H   -4.03037016137906     -0.54563753079869      0.90868496195700
  H   -3.41402325297107     -1.22057296069963     -0.59649001959305
  H   -2.57256778855963     -1.52032992590612      0.93239146796303
  C   -0.85234253742392      0.38117614860898     -1.76997252794107
  C   0.49729956329444      0.15079150945937     -2.23760129155028
  H   -1.63293062101701      0.74516138611099     -2.43166762844098
  C   1.59505661993789      0.46442770233721     -1.44149405483737
  C   2.80263171484680      0.04673348695587     -2.07416732112307
  S   0.93110496252145     -0.60337218220755     -3.70224023742626
  C   2.59639243586493     -0.53735878676424     -3.28354026608003
  H   1.53166716778928      1.35501453441567     -0.68501015699416
  H   3.78632723272389      0.22473100093445     -1.66465225570205
  H   3.33528418482467     -0.91445408341185     -3.97432698782674
  H   -0.83610657595647     -3.16653446732977     -0.15772697773116
  H   -0.66572463571640     -2.37459888875516      2.43887459238598
  H   1.87202737630141     -1.57646947267903      2.88248901583425
  O   1.30033726826074      2.47876348817196      0.25892931034214
  O   0.53475562370293      0.91474639491971      1.65306158769769
  C   0.90026782299950      2.12040794216416      1.36231640527895
  C   0.83317326520063      3.08363936641688      2.51512425627890
  H   0.78996434504695      4.10854549678639      2.15689479365875
  H   1.73561489679920      2.97869263570106      3.12052535163241
  H   -0.01556460306016      2.87941881013966      3.16463829307989
  H   3.26060533853040     -1.89514975998961      0.61867617400345
  H   1.58045927616292     -2.87312740440174     -1.27245884984536
