39
Coordinates from ORCA-job reaction4-IEIP_ts_guess_scan_13-7_orca
  Ir  0.62048681157647     -0.73443434976570      0.39611871158371
  C   0.17042636986075     -2.85527340126131      0.31943966078060
  C   -0.08707184843195     -2.42097026630313      1.66927539081465
  C   2.14847359047732     -2.05339680024856      1.20323801529082
  C   1.54467388274346     -2.65688923485983      0.05079204698463
  C   1.12981764871737     -1.94545114557827      2.19663884908351
  N   -1.07667808026371      0.11348678128360     -0.50987196694682
  C   -2.34225818942196      0.30340744540292      0.21320465622730
  C   -3.13344810520158      1.52068901910986     -0.24349991979660
  H   -3.96102589624551      1.68107978086320      0.44563967133020
  H   -3.57285245839483      1.39473995915929     -1.23396584060258
  H   -2.52544961517407      2.42566863059858     -0.24147093893673
  C   -3.17250590061870     -0.97193209931559      0.11547804033390
  H   -2.05352215754568      0.45726474619713      1.25408047277754
  H   -4.07063913353564     -0.87837324026747      0.72464941945271
  H   -3.48443495668337     -1.15936125017957     -0.91276187875475
  H   -2.62502232940078     -1.84451932620484      0.46803437100194
  C   -0.93267097654602      0.48369431401682     -1.72979256174746
  C   0.38310363267052      0.30283321067987     -2.26108500442355
  H   -1.74036887076311      0.92954495153217     -2.30064729282517
  C   1.39720508119773      0.00997219390677     -1.34049665743017
  C   2.62311225611454     -0.21709149946726     -2.04933671843382
  S   0.90283789882762      0.32549396223119     -3.87265039619779
  C   2.49973334239880     -0.07511325278251     -3.39694341283694
  H   1.61393981227468      1.14354811631467     -0.70058839797058
  H   3.56945865080603     -0.41641423506625     -1.56728873589540
  H   3.27387087484678     -0.16371581699349     -4.14398285863749
  H   -0.54377979351020     -3.30539292568649     -0.35438728434972
  H   -1.02617773684692     -2.48126250217038      2.19749428270518
  H   1.25708583927633     -1.50079513042857      3.17350669973541
  O   1.72085564461981      2.32455415835192      0.04358479019641
  O   0.60069936533007      1.03631436878209      1.47279902534876
  C   1.14724079153512      2.13083788727973      1.13476263330074
  C   1.11470427312390      3.24686986747592      2.13752297972656
  H   1.00537657658610      4.20764750931692      1.64000794174020
  H   2.06504243868473      3.26642986210923      2.67382655332193
  H   0.31877589738984      3.10802167533404      2.86373450576719
  H   3.19387789498172     -1.82269736316444      1.33759211221841
  H   2.04647749454431     -2.90982465020230     -0.87191087393674
