39
Coordinates from ORCA-job reaction4-IEIP_ts_guess_scan_3-1_orca
  Ir  0.59570015609178     -0.71735452888220      0.43742758173906
  C   0.03972328430852     -2.80051805796215      0.33443094662742
  C   0.12860411821668     -2.34771125162033      1.70130155800922
  C   2.20822073279546     -2.13011520916746      0.73707218338168
  C   1.30152078678027     -2.64205852729818     -0.26580690544590
  C   1.49651995524446     -1.98785048686372      1.94125991698145
  N   -1.04521001103537      0.17945695739827     -0.52596678079633
  C   -2.31131344412087      0.51504617526656      0.14290684240174
  C   -3.13347221006517      1.55626071529835     -0.59870898006090
  H   -3.96261392908574      1.86627108108679      0.03578293632949
  H   -3.57456940691822      1.17270273574042     -1.52025796550083
  H   -2.55260722693476      2.44971459772376     -0.83009207909729
  C   -3.11005713876121     -0.75830875783560      0.39261267342792
  H   -2.01156733872969      0.93241014353965      1.10562080290884
  H   -4.01931833837392     -0.51611777255751      0.94060695000639
  H   -3.40309124830025     -1.23299473267416     -0.54477799428741
  H   -2.55579894762567     -1.48008452131886      0.99083137074097
  C   -0.84139492713410      0.38815695046841     -1.76791692888442
  C   0.51100591780947      0.15062590020581     -2.22901458430893
  H   -1.61501009277137      0.75707326709676     -2.43510059052937
  C   1.61354094116879      0.50088758547128     -1.45673330873829
  C   2.81829917294134      0.07056127532794     -2.08618431657150
  S   0.93750700332978     -0.64496902616757     -3.67608382543174
  C   2.60601594996290     -0.55341252014428     -3.27421122964743
  H   1.54166004868419      1.37823811429395     -0.69252689525355
  H   3.80401486971937      0.26770627001784     -1.69053214835418
  H   3.34207056518443     -0.94789043425443     -3.95828685714872
  H   -0.85292337362778     -3.16310171701674     -0.15478221566313
  H   -0.65641370144604     -2.37845542198535      2.44254374200341
  H   1.88843604676871     -1.59162258268700      2.86701012265370
  O   1.28654656246963      2.47882916825283      0.27233753700865
  O   0.53505878236892      0.90236358785285      1.66085197567310
  C   0.89247594332553      2.11272513331218      1.37440315534042
  C   0.82069290732805      3.06850868725451      2.53331837318262
  H   0.77296345081010      4.09525186286209      2.18091667248007
  H   1.72323627158062      2.96424708524136      3.13865459428454
  H   -0.02739802858178      2.85704018163399      3.18142346648251
  H   3.25299911508504     -1.90200054829832      0.58711273174959
  H   1.55531676153789     -2.87032140861175     -1.29070247769292
