39
Coordinates from ORCA-job reaction4-IEIP_ts_guess_scan_6-12_orca
  Ir  0.59613292518783     -0.73641291846093      0.48810071564566
  C   0.09353579615146     -2.83536038179179      0.37522546694773
  C   -0.05582287735209     -2.36526053291056      1.72871865706656
  C   2.15757052829855     -2.10484152421047      1.11527717084239
  C   1.44005433703851     -2.66415943725913     -0.00369785067040
  C   1.23509612391199     -1.95191622579851      2.17428754370571
  N   -1.04937794489352      0.11617273664290     -0.50145538809513
  C   -2.33396006312529      0.34507458844402      0.18182783472411
  C   -3.11636570842756      1.52977616234468     -0.36706243891690
  H   -3.95247315483702      1.73851069704791      0.29879442255671
  H   -3.54455791025462      1.33682341663552     -1.35156820171308
  H   -2.50722455529577      2.43236444915388     -0.41964669894082
  C   -3.16294305954365     -0.93379810359911      0.14803452088761
  H   -2.06889989712650      0.56505487152137      1.21695737345433
  H   -4.07972706960684     -0.79691158053227      0.72005682258701
  H   -3.44337892620710     -1.19374650289215     -0.87355289316622
  H   -2.63075477079291     -1.77916787487603      0.58129757066196
  C   -0.88433543084920      0.41197526741050     -1.73734026347249
  C   0.43795023450409      0.25806124810402     -2.27436260524065
  H   -1.69983039378782      0.79367525658724     -2.34475781553862
  C   1.53596467299588      0.23453141913539     -1.42578617492761
  C   2.72290234867716     -0.04217847245442     -2.15932861830757
  S   0.84706682654569     -0.00740640035663     -3.90711512827918
  C   2.49917306335901     -0.18501989156645     -3.49682925626945
  H   1.63346908901941      1.20642108597301     -0.56640114024626
  H   3.71085369933287     -0.07529648614175     -1.72363264862985
  H   3.22667530220911     -0.36619488853878     -4.27350042469071
  H   -0.69050356454466     -3.23970456015496     -0.24841768141469
  H   -0.95109803786968     -2.40373235341340      2.33096192671083
  H   1.45410821644370     -1.52027356890924      3.14079501584590
  O   1.68634448220908      2.29324573884284      0.19591007829237
  O   0.53787747377065      0.99706964366770      1.59488346233697
  C   1.09335695869894      2.09782255102607      1.27229941253814
  C   1.03949329470207      3.20046511427524      2.28734247203381
  H   0.95776172570111      4.16818427548312      1.79821372223111
  H   1.97165719679311      3.20237665121509      2.85523694379506
  H   0.21954167174107      3.06298770339179      2.98696809605770
  H   3.21282663126975     -1.88194980728724      1.15207179566672
  H   1.86121078595320     -2.90807134574846     -0.96806558606877
