39
Coordinates from ORCA-job reaction4-IEIP_ts_guess_scan_4-7_orca
  Ir  0.59177155362004     -0.72367262447092      0.47035644503107
  C   0.03836183702451     -2.80809761989377      0.36946272804560
  C   0.08323180685243     -2.35261259439314      1.73576289165158
  C   2.19393564259979     -2.13399978412167      0.83519141396346
  C   1.31870664206647     -2.65053045651293     -0.19267754193439
  C   1.44090693344714     -1.98569823118929      2.01465849867083
  N   -1.04355700772564      0.15173988541698     -0.51779807453470
  C   -2.31913017119725      0.45576090260656      0.15092016578504
  C   -3.11903231089523      1.55286254671150     -0.53378665037497
  H   -3.94893894254879      1.83824346577457      0.11127320991971
  H   -3.55831528549672      1.23284717313191     -1.47989897391468
  H   -2.52067311854135      2.44763069583540     -0.70764866584613
  C   -3.13472759538978     -0.82264055458049      0.30327434495399
  H   -2.03460912142611      0.80713009868483      1.14404521875385
  H   -4.05230990567566     -0.60809632367268      0.84911677723633
  H   -3.41328981551210     -1.23306179781404     -0.66820703186923
  H   -2.59718999082181     -1.58726966714453      0.86205405531860
  C   -0.85431154884289      0.37452675684389     -1.76245081765716
  C   0.48944108439067      0.17854914794031     -2.24971596982557
  H   -1.64792265999024      0.73046262262357     -2.41303186756615
  C   1.58539586215740      0.41895673881311     -1.42834523186077
  C   2.79090097849899      0.04847599623441     -2.08975994776538
  S   0.92303047021979     -0.43985110208783     -3.77757867988074
  C   2.58475423173401     -0.42218019907503     -3.34965950698547
  H   1.53495037463875      1.33031405180735     -0.62773522825845
  H   3.77541907941915      0.18006431581930     -1.66487722050968
  H   3.32443918432303     -0.73983734080922     -4.06898614381026
  H   -0.83679342936448     -3.17481599581392     -0.14748071371758
  H   -0.72499006110344     -2.38219804554076      2.45143011779869
  H   1.80282109331079     -1.58498799360790      2.95068612480929
  O   1.38466179880746      2.42410146844567      0.23310298939101
  O   0.53367018850882      0.93434512707181      1.65666472719888
  C   0.94633301551201      2.11185859974481      1.34263331165291
  C   0.89721840264028      3.11982896205182      2.45505746428244
  H   0.86872748654388      4.13109946027192      2.05863995263508
  H   1.80116789416654      3.02416212118475      3.05985155088357
  H   0.04785927541728      2.95148327609866      3.11351312149121
  H   3.24429268882190     -1.91151930579773      0.72086160722377
  H   1.60316338981036     -2.88418374658729     -1.20817840038560
