39
Coordinates from ORCA-job reaction4-IEIP_ts_guess_scan_10-8_orca
  Ir  0.61185742289809     -0.72764915629801      0.43569496487378
  C   0.12940579658594     -2.83985240045066      0.34751790326308
  C   -0.06593726238476     -2.37798363021224      1.69727389265841
  C   2.15985457265960     -2.07561241276901      1.14367699132108
  C   1.48849697095811     -2.65944541788490      0.01285564022095
  C   1.19467848989560     -1.93339609856858      2.17386365108236
  N   -1.06376215695150      0.12074431613668     -0.50979605424065
  C   -2.33877820941171      0.32786445180032      0.19440381010082
  C   -3.13286178842606      1.52296809009095     -0.31353869741283
  H   -3.96428858349266      1.70684890960898      0.36512897158075
  H   -3.56780233977004      1.35537036416089     -1.29978859710325
  H   -2.52928491641408      2.43030683846210     -0.34495672104628
  C   -3.16239663488076     -0.95391952016479      0.13491207295900
  H   -2.06140555093184      0.52063874174142      1.23176565457875
  H   -4.07114024722983     -0.83886702212645      0.72433130447832
  H   -3.45650712002937     -1.18477001534166     -0.88977478351255
  H   -2.61926118099018     -1.80905198691448      0.53386276451949
  C   -0.90952671256711      0.45771670325573     -1.73707841401934
  C   0.40962688855008      0.28743518296654     -2.26946071786588
  H   -1.72020885117558      0.87508474630353     -2.32594361515763
  C   1.46498388425840      0.11135057487432     -1.37630854040950
  C   2.67058077325973     -0.14731677723808     -2.09595686472950
  S   0.87380622089084      0.16691497254824     -3.89762996047831
  C   2.49742850125347     -0.14016306568488     -3.44689262458920
  H   1.63032395083059      1.13946008090431     -0.60945092877456
  H   3.63745615771311     -0.27245928981537     -1.63043511033206
  H   3.24761190418366     -0.27863433284898     -4.21057787516076
  H   -0.62625692861341     -3.26548532079127     -0.29652797237862
  H   -0.97956140783802     -2.42355401542004      2.27019388277203
  H   1.37526779184044     -1.48933997457172      3.14269781018434
  O   1.73252303780243      2.29634239035278      0.14644770972277
  O   0.55453591503793      1.01887823845095      1.53610659195032
  C   1.12517672782654      2.11148659041059      1.21679184543244
  C   1.07001210471353      3.22289860503176      2.22330310360801
  H   0.95760401363825      4.18326722123351      1.72531009852590
  H   2.01451585193077      3.25188685650344      2.76924451369004
  H   0.26718436725755      3.07678823776151      2.94045279471578
  H   3.21258907907517     -1.85241806233723      1.22225374078646
  H   1.94282949804707     -2.91514361316019     -0.93323223581395
