39
Coordinates from ORCA-job reaction4-IEIP_ts_guess_scan_13-8_orca
  Ir  0.61907423996466     -0.73718800417654      0.39713185047522
  C   0.17160676662126     -2.85706996056896      0.32134658716247
  C   -0.09541125797596     -2.42413647552463      1.67002285332079
  C   2.14240677399663     -2.05253230989060      1.21864774815290
  C   1.54817331146712     -2.65791271962936      0.06293143933137
  C   1.11609784196679     -1.94644204639159      2.20546676098545
  N   -1.07819091271859      0.11021799528997     -0.50874956669611
  C   -2.34482514686132      0.29552558201420      0.21379436478354
  C   -3.13462470670084      1.51662348120140     -0.23509523228306
  H   -3.96320822489907      1.67241801626129      0.45388580920598
  H   -3.57244686329121      1.39858402153141     -1.22723032572811
  H   -2.52594421079567      2.42109422060703     -0.22532853547144
  C   -3.17558994287960     -0.97858781993487      0.10586755633988
  H   -2.05777389360219      0.44204517882585      1.25621259089357
  H   -4.07422210052275     -0.88950152204848      0.71499330265217
  H   -3.48668058994373     -1.15808784767355     -0.92404219560975
  H   -2.62859498021051     -1.85410652765427      0.45192388357469
  C   -0.93409840546140      0.48511890420972     -1.72733267418821
  C   0.38130611391678      0.30720818481034     -2.25996213220321
  H   -1.74234264932280      0.93243413006143     -2.29629442453857
  C   1.39373476942660      0.00242296478594     -1.34244910918875
  C   2.62004720493863     -0.21766758163538     -2.05168697283239
  S   0.90340939544943      0.34984376352564     -3.87112196170657
  C   2.49859539994674     -0.05805292911646     -3.39794657980034
  H   1.61822219849868      1.15250578653261     -0.70306495256289
  H   3.56538065539513     -0.42573107006407     -1.57134731285175
  H   3.27388195147713     -0.13867547473194     -4.14471188284982
  H   -0.53678446573880     -3.30957882523797     -0.35698874349952
  H   -1.03834989304863     -2.48512096978757      2.19127419004783
  H   1.23576705629632     -1.50149506319807      3.18314653737542
  O   1.72811764489574      2.32098609680843      0.03367166282449
  O   0.60540571216975      1.03983305876922      1.46729958729746
  C   1.15426113018188      2.13068211122314      1.12734043745767
  C   1.12965439822994      3.25027323530630      2.12577212372929
  H   1.01828421431896      4.20950720324281      1.62569399033271
  H   2.08345024536188      3.27066225822213      2.65590308046528
  H   0.33804269824304      3.11460924418232      2.85720833899882
  H   3.18660182427089     -1.82090931815031      1.36058399773093
  H   2.05693674693911     -2.91060895199655     -0.85602589112746
