39
Coordinates from ORCA-job reaction4-IEIP_ts_guess_scan_5-7_orca
  Ir  0.60158650449374     -0.72270381636111      0.46660742386707
  C   0.06590313117719     -2.81456737531460      0.35972127461254
  C   0.05560584678500     -2.35471916940560      1.72480294832817
  C   2.19841859218376     -2.11962070696762      0.90301653936929
  C   1.36639244357171     -2.65009539000345     -0.15264285228193
  C   1.39618363395651     -1.97238875422687      2.05155314841077
  N   -1.04298219886064      0.14356730117702     -0.51345605972907
  C   -2.31704141921172      0.43055182792506      0.16585122066991
  C   -3.10255126124862      1.56712457885695     -0.47015257288083
  H   -3.93067808988109      1.83374055090834      0.18511845662087
  H   -3.54276372905732      1.29384747422325     -1.43018364768603
  H   -2.49201784136152      2.46046252443987     -0.60356045559611
  C   -3.14540091434395     -0.84592398562056      0.25462804095031
  H   -2.03286879771602      0.73192205381888      1.17514130584905
  H   -4.05796137472492     -0.65329677569014      0.81689146864332
  H   -3.43288254830059     -1.20077408553343     -0.73595125321050
  H   -2.61073668104863     -1.64504220665179      0.76592618964792
  C   -0.86732898262146      0.37621452222432     -1.75888354148891
  C   0.47066495615120      0.18569685361975     -2.25997775553135
  H   -1.66884246967026      0.73569598109129     -2.39765318409373
  C   1.56632463354583      0.36845336211364     -1.42291341378767
  C   2.76921540950738      0.01330012275924     -2.09806888784572
  S   0.90015786677746     -0.36630942377007     -3.81235534029322
  C   2.56029621302507     -0.39302975057640     -3.37992450317758
  H   1.53923335234209      1.29584307080459     -0.62770977566126
  H   3.75430100776918      0.11031299651891     -1.66536938654023
  H   3.29805452952064     -0.68622212530824     -4.11146383545813
  H   -0.78467523978770     -3.19400424104346     -0.18807090934105
  H   -0.77862961848944     -2.38832987047635      2.40967686068890
  H   1.71738372943638     -1.56193963962874      2.99829420749441
  O   1.41983553604107      2.41281035855533      0.20783091430435
  O   0.53973213927050      0.94866004312602      1.63885657067048
  C   0.96584412976853      2.11736656726052      1.31715389938988
  C   0.91351419121139      3.14133144979941      2.41446809506210
  H   0.87647343660191      4.14661639671225      2.00362202292278
  H   1.82127712770842      3.06135267759382      3.01576737164111
  H   0.06800046410838      2.97622174565831      3.07842602165443
  H   3.25220919939352     -1.89639613240235      0.83140502462191
  H   1.69012302197701     -2.88653895020597     -1.15568158081626
