39
Coordinates from ORCA-job reaction4-IEIP_ts_guess_scan_3-0_orca
  Ir  0.59747421220961     -0.71605687934705      0.43184329362394
  C   0.04092737046705     -2.79954173625261      0.33019404307658
  C   0.13325025967868     -2.34590960504566      1.69676186175127
  C   2.21039829767940     -2.12926560505871      0.72760118777280
  C   1.30129261599749     -2.64159105031415     -0.27286472508570
  C   1.50188480905479     -1.98659044769074      1.93352758855392
  N   -1.04520585344171      0.18293562225353     -0.52713628089970
  C   -2.30991767645346      0.52123953603509      0.14259760811076
  C   -3.13458102623747      1.55723434119426     -0.60334459690191
  H   -3.96351819273272      1.86915722131899      0.03045468502043
  H   -3.57594182336046      1.16792229106429     -1.52237026170302
  H   -2.55553894134395      2.45051318947886     -0.83995346374521
  C   -3.10662799378020     -0.75158066149259      0.40127917673802
  H   -2.00822317033032      0.94411129248759      1.10230156532202
  H   -4.01466273207004     -0.50731565010042      0.95037830676159
  H   -3.40174568967970     -1.23162798794140     -0.53272641625700
  H   -2.55001667777580     -1.46944205324431      1.00200413251975
  C   -0.84013819467203      0.39155253461824     -1.76858060027860
  C   0.51294157564774      0.14843749058892     -2.22676725415182
  H   -1.61121507595289      0.76353548571483     -2.43696719441132
  C   1.61663547522687      0.50578088510495     -1.45928916781226
  C   2.82069323499387      0.06822353389657     -2.08569304904614
  S   0.93763886941950     -0.66332638308997     -3.66555857078452
  C   2.60685443261395     -0.56826983965608     -3.26648097330518
  H   1.54556399539806      1.38146197764341     -0.70120860621721
  H   3.80682005539625      0.26950930753957     -1.69317492080717
  H   3.34206238673667     -0.97062373548005     -3.94685744150360
  H   -0.85300109834092     -3.16233014380912     -0.15649398489346
  H   -0.64986159742680     -2.37640849817013      2.44004778037434
  H   1.89604276827811     -1.59017308211398      2.85823874269194
  O   1.27620481631590      2.48671610262122      0.27647178586634
  O   0.53566336676039      0.89961637350278      1.65907932418801
  C   0.88630893625699      2.11388382087760      1.37688076475140
  C   0.81002834773611      3.06293542106468      2.54133750067428
  H   0.75704791431887      4.09126431150986      2.19427748212371
  H   1.71319657002629      2.96015754603862      3.14596356855694
  H   -0.03684943380976      2.84403545797931      3.18857301478291
  H   3.25470771478432     -1.90095684887418      0.57468989470990
  H   1.55277713241133     -2.87002356485204     -1.29829575016703
