39
Coordinates from ORCA-job reaction4-IEIP_ts_guess_scan_4-0_orca
  Ir  0.60380034534593     -0.71199697756482      0.43067600094165
  C   0.05234285986397     -2.79869197623017      0.33554269141904
  C   0.13085440438721     -2.34225790649509      1.70119860004037
  C   2.21661709777162     -2.12068716585501      0.74903631612409
  C   1.31780569931202     -2.63964947307179     -0.25730364522858
  C   1.49506764246963     -1.97533799254155      1.94766150236566
  N   -1.04593631110786      0.17539439354937     -0.52724150149409
  C   -2.31086053687654      0.50377020315076      0.14735738783234
  C   -3.12284832271850      1.56962009347388     -0.57037262850051
  H   -3.94862346780935      1.87403740587082      0.07123616353371
  H   -3.56839803844359      1.21193356386911     -1.50010971779478
  H   -2.53190845089020      2.46132411848587     -0.78191372417500
  C   -3.11820691232985     -0.77048287436054      0.36313267122787
  H   -2.01056425414827      0.89472698622454      1.12078020905582
  H   -4.02627596736905     -0.53716999136930      0.91695138907376
  H   -3.41317878728520     -1.21873716768665     -0.58653989477294
  H   -2.56805694165691     -1.51113679446626      0.94182460613888
  C   -0.85140228390500      0.38367313909084     -1.77100475000665
  C   0.49863799139839      0.14819881209482     -2.23664996976102
  H   -1.63004863995780      0.74993094769164     -2.43370966983847
  C   1.59733968621452      0.46897863772212     -1.44446008437342
  C   2.80450958813805      0.04486589192250     -2.07410991449735
  S   0.93108422187994     -0.62119647603793     -3.69356585525533
  C   2.59709065953956     -0.55161401189047     -3.27694014000019
  H   1.53361835549797      1.35735523484019     -0.69384173244784
  H   3.78840062642134      0.22697651426497     -1.66690688238766
  H   3.33516067392892     -0.93620898561084     -3.96444414626282
  H   -0.83563825640022     -3.16588456343147     -0.15870330979313
  H   -0.65927067230148     -2.37168214057927      2.43694531221989
  H   1.87948600736906     -1.57365197203905      2.87421795529462
  O   1.28845482995648      2.48640527854168      0.26278821470688
  O   0.53578706801624      0.91157557045268      1.65216976875504
  C   0.89364011461853      2.12124513230996      1.36499051410495
  C   0.82290747889700      3.07812736903049      2.52321225839984
  H   0.77507025677483      4.10465636718377      2.17023437183909
  H   1.72597608813160      2.97404448534961      3.12780728055549
  H   -0.02466920523989      2.86714654597101      3.17212605522494
  H   3.26285612738312     -1.89420841151626      0.60757079132635
  H   1.57874923512377     -2.87420185034417     -1.27890244359051
