39
Coordinates from ORCA-job reaction4-IEIP_ts_guess_scan_6-5_orca
  Ir  0.60948514691703     -0.71715377071081      0.45030129460733
  C   0.07729557976316     -2.81284123993266      0.34950233964198
  C   0.06440526802321     -2.35277252113901      1.71401773291808
  C   2.20732911220934     -2.11079543071250      0.89317477748534
  C   1.37821997688176     -2.64677144301518     -0.16173599340431
  C   1.40210871800054     -1.96374120483431      2.04049704944843
  N   -1.04445237776051      0.14737535132035     -0.51743351252804
  C   -2.31438392088951      0.43481492361906      0.16843509233553
  C   -3.10102061357797      1.57402389534465     -0.46129671173589
  H   -3.92668977627694      1.83925176058867      0.19761358098347
  H   -3.54461795409514      1.30396845300213     -1.42068600852460
  H   -2.49006314586313      2.46720711392281     -0.59382162268303
  C   -3.14347262829433     -0.84123767569821      0.25744460038495
  H   -2.02454873278862      0.73275588156271      1.17706346346604
  H   -4.05200774073464     -0.64987072478828      0.82658879818323
  H   -3.43784626067034     -1.19177628048653     -0.73262847204101
  H   -2.60593560029344     -1.64285295149166      0.76178635131021
  C   -0.87296763730118      0.38164902218510     -1.76291762583451
  C   0.46482491769161      0.18309257220251     -2.26155159940709
  H   -1.67311180828578      0.74657643729981     -2.40007957932791
  C   1.55469599702165      0.34690577817767     -1.41070201311830
  C   2.76112889645648     -0.01266690544522     -2.07956354481268
  S   0.90223667186109     -0.36620278185688     -3.81025168238433
  C   2.55937318849979     -0.41007439398713     -3.36472234427701
  H   1.53314616605225      1.28024327331058     -0.63961101718735
  H   3.74323846007551      0.07471659042454     -1.63815554679227
  H   3.30011434103623     -0.70525962343505     -4.09240022387269
  H   -0.77150514532338     -3.19592251355162     -0.19852200135938
  H   -0.77056509110003     -2.38700107608321      2.39786646148875
  H   1.72077993620449     -1.54977971318380      2.98657368216422
  O   1.40600943740940      2.42683708309885      0.20298925081990
  O   0.54043648422666      0.94983945150812      1.62926005330884
  C   0.95807862319477      2.12362978037054      1.31135513908346
  C   0.90091503589834      3.14074255429814      2.41541457536413
  H   0.86495275062311      4.14854271216615      2.01073311863174
  H   1.80594269593504      3.05711422360413      3.02028242630864
  H   0.05272414784805      2.97134219900850      3.07497212843322
  H   3.26130314928492     -1.88783485614543      0.82421089574663
  H   1.70381382214052     -2.88688398051753     -1.16326327282372
