30
Coordinates from ORCA-job 6_0_orca
  Lu  0.41279270000000      0.22739367000000     -0.15689972000000
  C   0.45995624000000      0.91890855000000      2.50047999000000
  C   1.36044977000000     -0.11497750000000      2.16702041000000
  C   2.32593595000000      0.42619338000000      1.28453619000000
  C   1.95144503000000      1.76241976000000      0.99880522000000
  C   0.72269974000000      2.01391271000000      1.65601504000000
  H   2.45481987000000      2.43187764000000      0.31258183000000
  H   0.19084684000000      2.95491383000000      1.66619405000000
  H   -0.27724753000000      0.87796253000000      3.29114113000000
  H   1.40446024000000     -1.08632049000000      2.64236536000000
  H   3.21668467000000     -0.07154309000000      0.92644586000000
  C   0.99921470000000     -0.10743041000000     -2.55113214000000
  C   -0.30218634000000     -0.65889560000000     -2.51660123000000
  C   1.02984920000000     -1.96195576000000     -1.21136030000000
  C   1.82854821000000     -0.91379429000000     -1.73605629000000
  H   1.27661080000000      0.81527910000000     -3.04360945000000
  C   -0.24967636000000     -1.86425022000000     -1.79668873000000
  H   -1.13874824000000     -0.32829573000000     -3.11373053000000
  H   2.88286921000000     -0.76972678000000     -1.54801992000000
  H   1.38604360000000     -2.79635226000000     -0.62173805000000
  H   -1.03988958000000     -2.59699952000000     -1.71162135000000
  C   -2.42194826000000     -1.73944399000000      1.39727043000000
  H   -2.31457801000000     -1.52208030000000      2.44217708000000
  H   -2.38377953000000     -2.79324189000000      1.12395269000000
  H   -3.41080565000000     -1.39017310000000      1.03896105000000
  C   -1.93764005000000      1.89629568000000     -0.82789139000000
  H   -2.01956495000000     -0.14190197000000      0.47055460000000
  H   -1.27886211000000      2.59782009000000     -1.34205593000000
  H   -2.55368399000000      2.49829482000000     -0.15708142000000
  H   -2.57462619000000      1.43611507000000     -1.58401495000000
