30
Coordinates from ORCA-job 6_1_orca
  Lu  0.22678870000000      0.25248275000000     -0.14859878000000
  C   0.44971506000000      0.90163748000000      2.46576183000000
  C   1.38432505000000     -0.09877751000000      2.19862895000000
  C   2.34876089000000      0.43776026000000      1.29177362000000
  C   1.94519814000000      1.74441273000000      0.98103688000000
  C   0.75547236000000      2.03707801000000      1.69526516000000
  H   2.46031132000000      2.43417283000000      0.31743566000000
  H   0.19205435000000      2.95254070000000      1.66161434000000
  H   -0.29095408000000      0.87402469000000      3.27116746000000
  H   1.40366270000000     -1.08364030000000      2.63797029000000
  H   3.21567653000000     -0.07293336000000      0.92971009000000
  C   1.00543083000000     -0.10758032000000     -2.53398108000000
  C   -0.29153158000000     -0.67775655000000     -2.55197367000000
  C   1.04549160000000     -1.98393147000000     -1.24035479000000
  C   1.83902691000000     -0.91494505000000     -1.75000730000000
  H   1.28236886000000      0.81140627000000     -3.05121057000000
  C   -0.24274780000000     -1.84149463000000     -1.77224343000000
  H   -1.13924233000000     -0.31945777000000     -3.10567169000000
  H   2.88464737000000     -0.77059027000000     -1.55118291000000
  H   1.38612640000000     -2.79183016000000     -0.62048569000000
  H   -1.04341843000000     -2.58486552000000     -1.70130132000000
  C   -2.49808422000000     -1.61141484000000      1.30630947000000
  H   -2.29902487000000     -1.51834389000000      2.45583430000000
  H   -2.33862679000000     -2.77857689000000      1.10813045000000
  H   -3.39695444000000     -1.40347041000000      1.07255589000000
  C   -1.90414719000000      1.84995710000000     -0.80990784000000
  H   -1.99732611000000     -0.24308997000000      0.51092123000000
  H   -1.26932504000000      2.59882245000000     -1.34710617000000
  H   -2.54606562000000      2.47778837000000     -0.14376837000000
  H   -2.57256169000000      1.43048252000000     -1.57589705000000
