30
Coordinates from ORCA-job 6_2_orca
  Lu  0.06866377000000      0.26480187000000     -0.13330956000000
  C   0.42770376000000      0.89234837000000      2.45584594000000
  C   1.42025131000000     -0.09309843000000      2.20864524000000
  C   2.34695068000000      0.43646295000000      1.30432485000000
  C   1.93422757000000      1.74088280000000      0.96022888000000
  C   0.77960103000000      2.04026323000000      1.71926319000000
  H   2.45469439000000      2.43138390000000      0.31945516000000
  H   0.18885724000000      2.94801417000000      1.66372629000000
  H   -0.29857720000000      0.85963792000000      3.24676602000000
  H   1.41218138000000     -1.08524772000000      2.63849221000000
  H   3.22283178000000     -0.07461949000000      0.92811266000000
  C   0.99982196000000     -0.09438906000000     -2.52563497000000
  C   -0.27917714000000     -0.69094490000000     -2.56612093000000
  C   1.06670287000000     -1.98897111000000     -1.26272419000000
  C   1.83795356000000     -0.92515251000000     -1.74624777000000
  H   1.27982477000000      0.80452243000000     -3.04791390000000
  C   -0.25407915000000     -1.83974440000000     -1.75156495000000
  H   -1.14612146000000     -0.31571608000000     -3.09522839000000
  H   2.88831858000000     -0.76831071000000     -1.55438652000000
  H   1.39323092000000     -2.79548504000000     -0.61976668000000
  H   -1.04047616000000     -2.56967916000000     -1.68256119000000
  C   -2.38726306000000     -1.55333761000000      1.29358731000000
  H   -2.29277741000000     -1.50159869000000      2.40909774000000
  H   -2.28273419000000     -2.70721726000000      1.09083905000000
  H   -3.51236079000000     -1.38999991000000      1.05696993000000
  C   -1.87129471000000      1.82725361000000     -0.79830278000000
  H   -2.01888956000000     -0.34107977000000      0.56033447000000
  H   -1.25748272000000      2.59154836000000     -1.34624861000000
  H   -2.52828229000000      2.46290244000000     -0.15003479000000
  H   -2.56177312000000      1.43546232000000     -1.57516450000000
