30
Coordinates from ORCA-job 6_7_orca
  Lu  -0.08394093000000      0.21275246000000     -0.06254105000000
  C   0.44404235000000      0.83648935000000      2.47630818000000
  C   1.42595951000000     -0.13519358000000      2.20450220000000
  C   2.32372985000000      0.41156475000000      1.25819073000000
  C   1.86610904000000      1.70390275000000      0.93160799000000
  C   0.71295298000000      1.97652930000000      1.70206668000000
  H   2.37276737000000      2.40912823000000      0.28211044000000
  H   0.15309840000000      2.89685004000000      1.70870483000000
  H   -0.33466021000000      0.75158950000000      3.22906177000000
  H   1.50919512000000     -1.10892244000000      2.66274766000000
  H   3.22900875000000     -0.05541989000000      0.90928553000000
  C   0.94224183000000     -0.08416764000000     -2.45438196000000
  C   -0.32930226000000     -0.69712979000000     -2.48834125000000
  C   1.05969675000000     -1.99887501000000     -1.22197462000000
  C   1.80581426000000     -0.89459585000000     -1.69417372000000
  H   1.22268667000000      0.81768626000000     -2.98928355000000
  C   -0.25235597000000     -1.86742095000000     -1.71750875000000
  H   -1.19189242000000     -0.34437529000000     -3.02679969000000
  H   2.86580783000000     -0.74727553000000     -1.55758075000000
  H   1.44995098000000     -2.82306346000000     -0.64405649000000
  H   -1.05647640000000     -2.58543858000000     -1.57680999000000
  C   -2.35666762000000     -1.41408013000000      1.19990301000000
  H   -2.24003066000000     -1.32304989000000      2.25948758000000
  H   -1.96433033000000     -2.38242097000000      0.97396553000000
  H   -3.46126081000000     -1.49264627000000      0.98988622000000
  C   -1.83054406000000      1.83427514000000     -0.81955832000000
  H   -2.18270851000000     -0.43312714000000      0.64785977000000
  H   -1.14791706000000      2.53988456000000     -1.31634649000000
  H   -2.47055183000000      2.51004532000000     -0.23295552000000
  H   -2.48657573000000      1.50824303000000     -1.63535859000000
