30
Coordinates from ORCA-job 6_8_orca
  Lu  -0.05813236000000      0.17531128000000     -0.03878655000000
  C   0.43807829000000      0.80297072000000      2.49604120000000
  C   1.42464064000000     -0.16607011000000      2.18373264000000
  C   2.29706248000000      0.39272821000000      1.23500882000000
  C   1.82566630000000      1.68752773000000      0.91482165000000
  C   0.66789521000000      1.92860808000000      1.68712397000000
  H   2.31671624000000      2.38994763000000      0.25991371000000
  H   0.12166462000000      2.86712855000000      1.73106666000000
  H   -0.34910157000000      0.69052986000000      3.22983661000000
  H   1.56415746000000     -1.12199954000000      2.67896483000000
  H   3.22106500000000     -0.04506579000000      0.88919896000000
  C   0.90362820000000     -0.07186395000000     -2.41600447000000
  C   -0.35761228000000     -0.70236723000000     -2.43391410000000
  C   1.05338687000000     -1.98967115000000     -1.18786576000000
  C   1.77943122000000     -0.88146980000000     -1.65711626000000
  H   1.18320400000000      0.82434420000000     -2.94751385000000
  C   -0.26573973000000     -1.89122663000000     -1.69312837000000
  H   -1.22795485000000     -0.35858236000000     -2.98477422000000
  H   2.84270316000000     -0.72855026000000     -1.55031844000000
  H   1.47681868000000     -2.83606841000000     -0.65591557000000
  H   -1.06140782000000     -2.60530739000000     -1.52647816000000
  C   -2.32066231000000     -1.34257936000000      1.18093742000000
  H   -2.22423633000000     -1.21036521000000      2.23387419000000
  H   -1.77317540000000     -2.26617939000000      0.87877865000000
  H   -3.46567859000000     -1.55673222000000      0.93900461000000
  C   -1.81891444000000      1.82560175000000     -0.82177764000000
  H   -2.21104007000000     -0.33855163000000      0.59483090000000
  H   -1.07138691000000      2.49471632000000     -1.28573007000000
  H   -2.45175811000000      2.53618970000000     -0.26059334000000
  H   -2.45507686000000      1.53523389000000     -1.67698858000000
