30
Coordinates from ORCA-job 5_0_orca
  Lu  0.25240949000000      0.04284922000000     -0.00745793000000
  C   0.44818933000000      0.80426527000000      2.51000842000000
  C   1.42185001000000     -0.16573988000000      2.19123646000000
  C   2.34040002000000      0.42648419000000      1.29399107000000
  C   1.86737408000000      1.71634204000000      0.96490004000000
  C   0.66809421000000      1.92141378000000      1.68566351000000
  H   2.30880127000000      2.40087677000000      0.25190841000000
  H   0.12946704000000      2.85690311000000      1.73701460000000
  H   -0.25440090000000      0.73785716000000      3.32818393000000
  H   1.53007450000000     -1.13114051000000      2.66885902000000
  H   3.24045303000000     -0.03602932000000      0.91354000000000
  C   0.91835147000000     -0.09814784000000     -2.45294427000000
  C   -0.35834365000000     -0.70164871000000     -2.41503685000000
  C   1.05784969000000     -2.01022038000000     -1.21394790000000
  C   1.80382783000000     -0.92532197000000     -1.72973804000000
  H   1.15824266000000      0.84227624000000     -2.92994386000000
  C   -0.27098411000000     -1.88948181000000     -1.67573514000000
  H   -1.19979644000000     -0.40457185000000     -3.02175216000000
  H   2.85700497000000     -0.75374524000000     -1.55982110000000
  H   1.46343878000000     -2.84562678000000     -0.65824969000000
  H   -1.04075909000000     -2.64247972000000     -1.59956582000000
  C   -2.21307707000000     -1.66135506000000      1.27118080000000
  H   -2.26188382000000     -1.42460191000000      2.33682520000000
  H   -2.09338953000000     -2.74478592000000      1.16837041000000
  H   -3.23405309000000     -1.54075054000000      0.87861880000000
  C   -1.92397947000000      2.01828163000000     -0.91089572000000
  H   -2.43951533000000      0.26242517000000      0.41985793000000
  H   -1.12926355000000      2.62127337000000     -1.35287958000000
  H   -2.54512316000000      2.72346181000000     -0.35553517000000
  H   -2.50126919000000      1.60094400000000     -1.73665761000000
