30
Coordinates from ORCA-job 5_1_orca
  Lu  0.10785212000000      0.05181159000000      0.00132361000000
  C   0.45105351000000      0.80093825000000      2.49567091000000
  C   1.44680679000000     -0.15310526000000      2.21645522000000
  C   2.34432669000000      0.42197159000000      1.28283996000000
  C   1.86370159000000      1.69802337000000      0.95765924000000
  C   0.68600732000000      1.94796210000000      1.71159923000000
  H   2.31523245000000      2.40203002000000      0.25855756000000
  H   0.12477289000000      2.85319360000000      1.72855034000000
  H   -0.27031669000000      0.73359210000000      3.30934188000000
  H   1.52748525000000     -1.12798789000000      2.66607810000000
  H   3.23839554000000     -0.03736485000000      0.91422666000000
  C   0.92717859000000     -0.09964713000000     -2.44438008000000
  C   -0.35442147000000     -0.70490909000000     -2.44059536000000
  C   1.06835517000000     -2.01989343000000     -1.22180408000000
  C   1.80300177000000     -0.91901948000000     -1.72024129000000
  H   1.16366130000000      0.83831581000000     -2.93777906000000
  C   -0.25844282000000     -1.89254282000000     -1.68510447000000
  H   -1.20516072000000     -0.39249918000000     -3.00933800000000
  H   2.85748963000000     -0.75305715000000     -1.56298409000000
  H   1.46021045000000     -2.84215571000000     -0.65676900000000
  H   -1.04451477000000     -2.63219875000000     -1.58676247000000
  C   -2.28807177000000     -1.59902451000000      1.26209939000000
  H   -2.25233500000000     -1.41824695000000      2.32754441000000
  H   -2.04334898000000     -2.73242153000000      1.14209693000000
  H   -3.23231946000000     -1.53542561000000      0.89783703000000
  C   -1.94893821000000      1.97508998000000     -0.88946348000000
  H   -2.34120467000000      0.23782925000000      0.39704038000000
  H   -1.10431930000000      2.60464338000000     -1.34288819000000
  H   -2.54284541000000      2.70096600000000     -0.34225167000000
  H   -2.50161718000000      1.59581313000000     -1.72427769000000
