30
Coordinates from ORCA-job 5_5_orca
  Lu  -0.10920856000000      0.06563586000000      0.03023972000000
  C   0.45418639000000      0.80405962000000      2.50394775000000
  C   1.45951166000000     -0.14618171000000      2.22663387000000
  C   2.32100731000000      0.40391247000000      1.25668394000000
  C   1.83742053000000      1.68423007000000      0.92953066000000
  C   0.69870157000000      1.95244926000000      1.72581130000000
  H   2.32020101000000      2.39626758000000      0.26853961000000
  H   0.11223577000000      2.85036764000000      1.72030095000000
  H   -0.31114686000000      0.70814143000000      3.26095288000000
  H   1.54354017000000     -1.12558565000000      2.67330210000000
  H   3.23735086000000     -0.04552243000000      0.89910260000000
  C   0.91579750000000     -0.08580688000000     -2.42352996000000
  C   -0.34873015000000     -0.71855790000000     -2.46148255000000
  C   1.06838084000000     -2.01736649000000     -1.22152738000000
  C   1.79181962000000     -0.89708834000000     -1.68030785000000
  H   1.17496220000000      0.82655568000000     -2.94572148000000
  C   -0.25268923000000     -1.90355853000000     -1.70803158000000
  H   -1.22309842000000     -0.36743699000000     -2.97862844000000
  H   2.85630186000000     -0.74072375000000     -1.55968056000000
  H   1.46610871000000     -2.84352897000000     -0.65150471000000
  H   -1.04885038000000     -2.61680783000000     -1.55226163000000
  C   -2.31885308000000     -1.49765926000000      1.20980786000000
  H   -2.23955533000000     -1.35347903000000      2.30392957000000
  H   -1.90630019000000     -2.53902077000000      1.05240006000000
  H   -3.32249293000000     -1.50865829000000      0.90477694000000
  C   -1.92882450000000      1.88626303000000     -0.84134387000000
  H   -2.12261575000000      0.16107229000000      0.34160934000000
  H   -1.08876281000000      2.48601800000000     -1.26252681000000
  H   -2.53169552000000      2.62466975000000     -0.30366699000000
  H   -2.50701546000000      1.57013483000000     -1.70148950000000
