38
Coordinates from ORCA-job 4_0_orca
  Pd  0.48749478000000      0.42886332000000     -0.45258764000000
  O   2.09340987000000      1.47251716000000      0.50700289000000
  C   1.70686198000000      2.62794977000000      0.29417256000000
  O   0.51288313000000      2.81091272000000     -0.12135975000000
  C   2.57318578000000      3.80906235000000      0.56867761000000
  H   2.01488005000000      4.62138802000000      1.03017918000000
  H   2.97014373000000      4.17339931000000     -0.38074656000000
  H   3.41577352000000      3.54750782000000      1.20308034000000
  N   -1.27450622000000     -0.50743586000000     -1.11460548000000
  C   -1.28176201000000     -1.29773159000000     -2.36599805000000
  H   -0.93106887000000     -0.72608475000000     -3.22256607000000
  H   -2.28815086000000     -1.63403354000000     -2.65097874000000
  H   -0.65481533000000     -2.17838393000000     -2.28185188000000
  C   -2.17074677000000      0.61131829000000     -1.44478742000000
  H   -2.26257611000000      1.31001482000000     -0.62531615000000
  H   -3.19695292000000      0.30914924000000     -1.68720686000000
  H   -1.78678914000000      1.18947080000000     -2.28193774000000
  C   -1.46294115000000     -1.00544664000000      1.33925025000000
  C   -0.61646735000000     -1.84263773000000      2.06846633000000
  C   -0.50886204000000     -1.76761832000000      3.45060470000000
  C   -1.18353268000000     -0.76578460000000      4.12393259000000
  C   -2.10148569000000      0.00718927000000      3.42475582000000
  C   -2.06504601000000      0.04711756000000      2.03700905000000
  H   -1.08794449000000     -0.68290683000000      5.19901991000000
  H   -2.88187485000000      0.46990934000000      4.01516038000000
  H   -0.11923644000000     -2.67956363000000      1.59568423000000
  H   0.10417986000000     -2.47224264000000      3.99657593000000
  H   -2.66125919000000      2.67973036000000      2.00077990000000
  C   -1.87036309000000     -1.35701488000000     -0.06386040000000
  H   -2.96940628000000     -1.34656646000000     -0.06092906000000
  H   -1.63381442000000     -2.41255866000000     -0.22645429000000
  O   1.83246736000000     -0.82365042000000     -1.13441084000000
  C   2.28156905000000     -0.66247282000000     -2.33739807000000
  O   1.70361559000000      0.01981516000000     -3.16301300000000
  C   3.56252299000000     -1.35525743000000     -2.74550530000000
  H   3.46747522000000     -2.43856571000000     -2.67131605000000
  H   4.37078562000000     -1.06599588000000     -2.07161291000000
  H   3.91234943000000     -1.11336300000000     -3.74989340000000
