38
Coordinates from ORCA-job 4_10_orca
  Pd  0.61526711000000      0.45552157000000     -0.39306653000000
  O   2.05122086000000      1.39076548000000      0.43079019000000
  C   1.59867836000000      2.60926260000000      0.31305178000000
  O   0.47182140000000      2.79951723000000     -0.12382004000000
  C   2.58980023000000      3.75465340000000      0.57589724000000
  H   2.05943557000000      4.59676541000000      1.02015247000000
  H   3.00469092000000      4.12209771000000     -0.37159368000000
  H   3.43385080000000      3.48155752000000      1.21732077000000
  N   -1.34460096000000     -0.54177217000000     -1.17196237000000
  C   -1.25416852000000     -1.42131424000000     -2.35376149000000
  H   -0.84045708000000     -0.83317031000000     -3.16727454000000
  H   -2.28128959000000     -1.75019304000000     -2.57068101000000
  H   -0.61194879000000     -2.27949557000000     -2.14764598000000
  C   -2.19624757000000      0.62613559000000     -1.48111239000000
  H   -2.27091469000000      1.31327831000000     -0.63137658000000
  H   -3.18113786000000      0.22693061000000     -1.76500593000000
  H   -1.74215744000000      1.10096321000000     -2.35366694000000
  C   -1.48044075000000     -0.92542517000000      1.36029553000000
  C   -0.76478978000000     -1.91637321000000      2.09923139000000
  C   -0.52620296000000     -1.76915411000000      3.45322523000000
  C   -1.22206191000000     -0.81279838000000      4.15374382000000
  C   -1.97871938000000      0.15916820000000      3.49187568000000
  C   -1.99839465000000      0.11056715000000      2.15166713000000
  H   -1.10355648000000     -0.67748486000000      5.21383210000000
  H   -2.63374387000000      0.84180486000000      4.00358550000000
  H   -0.32538320000000     -2.76688521000000      1.57636318000000
  H   -0.01730372000000     -2.53896612000000      4.01527252000000
  H   -2.50847322000000      2.45466831000000      1.81418780000000
  C   -1.91875429000000     -1.31108744000000     -0.03411033000000
  H   -3.01135797000000     -1.21666412000000     -0.08634541000000
  H   -1.70892423000000     -2.37498609000000     -0.19316147000000
  O   1.90950300000000     -0.90061474000000     -1.16680286000000
  C   2.23391502000000     -0.60252493000000     -2.40314816000000
  O   1.59920533000000      0.05049404000000     -3.21476497000000
  C   3.59426418000000     -1.24226076000000     -2.73555490000000
  H   3.52038690000000     -2.33323592000000     -2.73900330000000
  H   4.38983771000000     -0.96772132000000     -2.04098908000000
  H   3.86038016000000     -0.92743476000000     -3.74333893000000
