38
Coordinates from ORCA-job 4_12_orca
  Pd  0.61969288000000      0.42862088000000     -0.39629545000000
  O   2.04546678000000      1.40225822000000      0.41804375000000
  C   1.59975731000000      2.59092413000000      0.31413855000000
  O   0.44900881000000      2.79208595000000     -0.11942809000000
  C   2.58856244000000      3.72468731000000      0.58041483000000
  H   2.08146633000000      4.58521922000000      1.01734758000000
  H   3.01737329000000      4.09125836000000     -0.36440265000000
  H   3.43650542000000      3.44893955000000      1.22158811000000
  N   -1.34433330000000     -0.55221889000000     -1.16241061000000
  C   -1.24703139000000     -1.46542319000000     -2.32820558000000
  H   -0.80259327000000     -0.89295686000000     -3.14601388000000
  H   -2.27482075000000     -1.81106995000000     -2.54520505000000
  H   -0.59917674000000     -2.32145769000000     -2.08630466000000
  C   -2.19573097000000      0.60818328000000     -1.50626571000000
  H   -2.27560335000000      1.30649568000000     -0.65236218000000
  H   -3.17906985000000      0.20063285000000     -1.80050260000000
  H   -1.72673598000000      1.06527578000000     -2.38309837000000
  C   -1.49514101000000     -0.91413654000000      1.37882359000000
  C   -0.82308853000000     -1.93013297000000      2.10193918000000
  C   -0.56234845000000     -1.79003932000000      3.46315218000000
  C   -1.22555368000000     -0.80738344000000      4.17014252000000
  C   -1.92614965000000      0.21679829000000      3.52274637000000
  C   -1.96365466000000      0.16432761000000      2.16112444000000
  H   -1.10548402000000     -0.67943351000000      5.22891656000000
  H   -2.51055975000000      1.00502299000000      4.00565977000000
  H   -0.42842121000000     -2.80562209000000      1.57463091000000
  H   -0.07362062000000     -2.57153330000000      4.02387402000000
  H   -2.43391303000000      2.34662933000000      1.73213266000000
  C   -1.94279835000000     -1.28319042000000     -0.03116025000000
  H   -3.03330053000000     -1.16014662000000     -0.08880509000000
  H   -1.75089402000000     -2.35458018000000     -0.17392733000000
  O   1.92704152000000     -0.90264674000000     -1.19047943000000
  C   2.22543598000000     -0.58608030000000     -2.42560066000000
  O   1.56272709000000      0.04582993000000     -3.21446079000000
  C   3.59936978000000     -1.18261590000000     -2.74762048000000
  H   3.54556406000000     -2.27687127000000     -2.77285379000000
  H   4.39179093000000     -0.91759574000000     -2.03266294000000
  H   3.84812546000000     -0.84022004000000     -3.74396621000000
