38
Coordinates from ORCA-job 4_1_orca
  Pd  0.53441825000000      0.46226467000000     -0.42554047000000
  O   2.10158840000000      1.38868965000000      0.49070824000000
  C   1.59469313000000      2.67911026000000      0.28122191000000
  O   0.55077458000000      2.80029503000000     -0.11154553000000
  C   2.59181412000000      3.80647391000000      0.56779479000000
  H   2.01863382000000      4.61605867000000      1.02780867000000
  H   2.97602829000000      4.16822743000000     -0.37883179000000
  H   3.42052710000000      3.53970636000000      1.20570022000000
  N   -1.30975818000000     -0.51738150000000     -1.16270959000000
  C   -1.26541745000000     -1.32795416000000     -2.37853064000000
  H   -0.91694993000000     -0.73941485000000     -3.20621362000000
  H   -2.28691681000000     -1.64617049000000     -2.62916355000000
  H   -0.64801624000000     -2.19251996000000     -2.26085167000000
  C   -2.18288677000000      0.63902935000000     -1.43939607000000
  H   -2.26336550000000      1.31137312000000     -0.62228745000000
  H   -3.18846057000000      0.28841286000000     -1.69886436000000
  H   -1.77674481000000      1.17063644000000     -2.29354720000000
  C   -1.47513492000000     -0.96255592000000      1.32602384000000
  C   -0.63856333000000     -1.87679080000000      2.09419706000000
  C   -0.49922410000000     -1.74931079000000      3.44286099000000
  C   -1.19174478000000     -0.79761804000000      4.12260093000000
  C   -2.09042983000000      0.05022052000000      3.41787761000000
  C   -2.05395836000000      0.03953741000000      2.09666403000000
  H   -1.09267557000000     -0.67902795000000      5.20051118000000
  H   -2.84013502000000      0.52625600000000      4.00517322000000
  H   -0.14768646000000     -2.69281026000000      1.58892397000000
  H   0.08498688000000     -2.48288988000000      3.99928256000000
  H   -2.63881261000000      2.64305227000000      1.97015043000000
  C   -1.87562673000000     -1.36471824000000     -0.03529393000000
  H   -2.97314167000000     -1.32292161000000     -0.07131715000000
  H   -1.64270998000000     -2.40564138000000     -0.22516829000000
  O   1.85442152000000     -0.86267590000000     -1.11838015000000
  C   2.25036088000000     -0.62582533000000     -2.37769982000000
  O   1.69096764000000      0.02438185000000     -3.17494492000000
  C   3.58477019000000     -1.34941119000000     -2.72436660000000
  H   3.47569259000000     -2.42316433000000     -2.68153813000000
  H   4.37159920000000     -1.05462554000000     -2.06917014000000
  H   3.89806650000000     -1.08299450000000     -3.75108119000000
