38
Coordinates from ORCA-job 4_21_orca
  Pd  0.48210752000000      0.32563301000000     -0.37788921000000
  O   1.99102605000000      1.31591467000000      0.35853171000000
  C   1.59943726000000      2.53286743000000      0.30028498000000
  O   0.43790467000000      2.78145392000000     -0.04193799000000
  C   2.61829513000000      3.59515984000000      0.58816231000000
  H   2.18104646000000      4.49731433000000      1.02368191000000
  H   3.10679724000000      3.88870145000000     -0.34976592000000
  H   3.39736945000000      3.22113668000000      1.25017597000000
  N   -1.32194234000000     -0.63293460000000     -1.08376625000000
  C   -1.14840038000000     -1.73803778000000     -2.06617482000000
  H   -0.64031004000000     -1.37428675000000     -2.96103768000000
  H   -2.12725929000000     -2.13608028000000     -2.36883536000000
  H   -0.56447326000000     -2.55798300000000     -1.64078540000000
  C   -2.10846729000000      0.44285560000000     -1.71851994000000
  H   -2.28703522000000      1.24100068000000     -0.99597823000000
  H   -3.09202290000000      0.05676507000000     -2.01525661000000
  H   -1.59490534000000      0.85679626000000     -2.58468370000000
  C   -1.62705959000000     -0.84991191000000      1.45946129000000
  C   -1.28610272000000     -1.90430866000000      2.21766176000000
  C   -1.00885507000000     -1.80446844000000      3.54649964000000
  C   -1.17847340000000     -0.58176694000000      4.19506746000000
  C   -1.44266466000000      0.53829821000000      3.51776938000000
  C   -1.66655922000000      0.40596139000000      2.10471542000000
  H   -1.05600574000000     -0.58702503000000      5.23588552000000
  H   -1.51803472000000      1.52162388000000      3.98005155000000
  H   -1.20697917000000     -2.83245241000000      1.73401973000000
  H   -0.65108915000000     -2.69896584000000      4.07582661000000
  H   -1.84485156000000      1.35747320000000      1.42083081000000
  C   -2.10928053000000     -1.12656750000000      0.06951975000000
  H   -3.15030421000000     -0.81593599000000     -0.03295224000000
  H   -2.14038646000000     -2.21832381000000      0.01785318000000
  O   1.91315868000000     -0.79404499000000     -1.23687666000000
  C   2.18087385000000     -0.51209045000000     -2.46549428000000
  O   1.36503131000000     -0.08652596000000     -3.27456457000000
  C   3.61239441000000     -0.77982255000000     -2.88886982000000
  H   3.75174295000000     -1.84624382000000     -3.08731083000000
  H   4.32439767000000     -0.50082072000000     -2.11096865000000
  H   3.88343230000000     -0.24746349000000     -3.79923103000000
