38
Coordinates from ORCA-job 4_24_orca
  Pd  0.49695359000000      0.33071156000000     -0.41835439000000
  O   2.03497927000000      1.31928014000000      0.32896841000000
  C   1.58952408000000      2.52308571000000      0.29519624000000
  O   0.40818973000000      2.74193271000000      0.00866484000000
  C   2.61190475000000      3.59802699000000      0.58175738000000
  H   2.15435503000000      4.48029377000000      1.00988805000000
  H   3.08696837000000      3.89359168000000     -0.35040996000000
  H   3.39145464000000      3.23400485000000      1.24605845000000
  N   -1.31171741000000     -0.60469758000000     -1.10181481000000
  C   -1.16015489000000     -1.69231614000000     -2.09261182000000
  H   -0.66010806000000     -1.31574728000000     -2.97367917000000
  H   -2.14233194000000     -2.09252606000000     -2.37769957000000
  H   -0.56271572000000     -2.50402437000000     -1.68067713000000
  C   -2.12534373000000      0.47419587000000     -1.70223325000000
  H   -2.29530465000000      1.26196233000000     -0.96820298000000
  H   -3.10234202000000      0.07664200000000     -2.00947873000000
  H   -1.61169688000000      0.89439516000000     -2.56101283000000
  C   -1.61878080000000     -0.80979037000000      1.45042294000000
  C   -1.21824280000000     -1.89682297000000      2.21140616000000
  C   -0.96235551000000     -1.80264193000000      3.56312703000000
  C   -1.16282203000000     -0.59172258000000      4.20426872000000
  C   -1.49254771000000      0.51777239000000      3.41525278000000
  C   -1.67518228000000      0.43453219000000      2.05843387000000
  H   -1.06724721000000     -0.54907744000000      5.31593647000000
  H   -1.59376803000000      1.47003444000000      3.96832091000000
  H   -1.10896576000000     -2.88241440000000      1.69659571000000
  H   -0.63512492000000     -2.64521601000000      4.07788018000000
  H   -1.87839945000000      1.27561006000000      1.49335534000000
  C   -2.09216590000000     -1.14612477000000      0.06049256000000
  H   -3.14216807000000     -0.85186709000000     -0.03385026000000
  H   -2.08894322000000     -2.22921660000000      0.01091265000000
  O   1.88812958000000     -0.83932122000000     -1.23701535000000
  C   2.16308679000000     -0.50793189000000     -2.47730617000000
  O   1.40566000000000     -0.01498041000000     -3.25885919000000
  C   3.61801463000000     -0.83219218000000     -2.85913996000000
  H   3.72136947000000     -1.89881698000000     -3.03404205000000
  H   4.32926303000000     -0.55019421000000     -2.08986577000000
  H   3.88667298000000     -0.32777353000000     -3.78226860000000
