38
Coordinates from ORCA-job 4_25_orca
  Pd  0.50485335000000      0.33597403000000     -0.42699714000000
  O   2.04353272000000      1.31568713000000      0.31395817000000
  C   1.59103157000000      2.51547361000000      0.29712284000000
  O   0.39696513000000      2.72916351000000      0.02550492000000
  C   2.60613850000000      3.59563108000000      0.57959122000000
  H   2.14505604000000      4.47884027000000      1.00782844000000
  H   3.08356866000000      3.89351703000000     -0.35416153000000
  H   3.38969191000000      3.23462719000000      1.24557176000000
  N   -1.31724272000000     -0.60010980000000     -1.10523840000000
  C   -1.16254192000000     -1.68151822000000     -2.09814225000000
  H   -0.66457847000000     -1.30206002000000     -2.97784294000000
  H   -2.14323902000000     -2.08144234000000     -2.37781584000000
  H   -0.56234084000000     -2.48975514000000     -1.68898614000000
  C   -2.12841085000000      0.48072884000000     -1.69880204000000
  H   -2.29928557000000      1.26724992000000     -0.96356564000000
  H   -3.10259483000000      0.08282472000000     -2.00915132000000
  H   -1.61660779000000      0.90459651000000     -2.55649968000000
  C   -1.61320209000000     -0.80239071000000      1.44887422000000
  C   -1.20347379000000     -1.90271045000000      2.19797470000000
  C   -0.95921952000000     -1.78654922000000      3.55959994000000
  C   -1.16200642000000     -0.58235300000000      4.20606289000000
  C   -1.49641556000000      0.52025362000000      3.40899800000000
  C   -1.67291930000000      0.41684149000000      2.06411572000000
  H   -1.07092205000000     -0.53582818000000      5.32498214000000
  H   -1.60716128000000      1.45572470000000      3.95574606000000
  H   -1.08681276000000     -2.88911150000000      1.69526487000000
  H   -0.62573305000000     -2.65434265000000      4.09418934000000
  H   -1.89051459000000      1.27581236000000      1.49082333000000
  C   -2.08616057000000     -1.14608731000000      0.06261444000000
  H   -3.13894111000000     -0.85948002000000     -0.03481367000000
  H   -2.07678445000000     -2.23656023000000      0.00578711000000
  O   1.87864505000000     -0.85444969000000     -1.24213278000000
  C   2.16574814000000     -0.50566856000000     -2.47148248000000
  O   1.41267787000000      0.00883267000000     -3.25988326000000
  C   3.61480292000000     -0.84356361000000     -2.85286080000000
  H   3.71452908000000     -1.91542494000000     -3.01978717000000
  H   4.32977487000000     -0.56138669000000     -2.08108924000000
  H   3.88954044000000     -0.34513438000000     -3.77956356000000
