38
Coordinates from ORCA-job 4_27_orca
  Pd  0.53078488000000      0.35392446000000     -0.46814474000000
  O   2.08125337000000      1.31027861000000      0.24738046000000
  C   1.58814999000000      2.48998263000000      0.30321400000000
  O   0.37239475000000      2.66063306000000      0.10165547000000
  C   2.58012403000000      3.59323048000000      0.57235784000000
  H   2.10414439000000      4.47456685000000      0.99849585000000
  H   3.06222901000000      3.89440326000000     -0.36622819000000
  H   3.37743558000000      3.24470541000000      1.23794084000000
  N   -1.32976822000000     -0.57171394000000     -1.10753249000000
  C   -1.17568350000000     -1.62413497000000     -2.12603079000000
  H   -0.68719260000000     -1.22749056000000     -3.00786658000000
  H   -2.15514084000000     -2.03035879000000     -2.38922766000000
  H   -0.56039621000000     -2.42594507000000     -1.73771529000000
  C   -2.14337151000000      0.51159897000000     -1.67658579000000
  H   -2.31772005000000      1.28744884000000     -0.93363670000000
  H   -3.11113368000000      0.11696064000000     -2.00111445000000
  H   -1.64290317000000      0.95603232000000     -2.53174542000000
  C   -1.57482906000000     -0.82849212000000      1.42812592000000
  C   -1.11933238000000     -1.92892986000000      2.17362750000000
  C   -0.91943015000000     -1.77033272000000      3.55441512000000
  C   -1.15920695000000     -0.57569696000000      4.22179902000000
  C   -1.52148637000000      0.51451296000000      3.42877272000000
  C   -1.69147491000000      0.39225233000000      2.06045988000000
  H   -1.09101122000000     -0.48827520000000      5.32180029000000
  H   -1.69869235000000      1.42365775000000      3.90862719000000
  H   -0.97104406000000     -2.89830268000000      1.69234658000000
  H   -0.57385496000000     -2.65789737000000      4.13901431000000
  H   -1.96013510000000      1.30513976000000      1.48669202000000
  C   -2.05831736000000     -1.16126073000000      0.05541921000000
  H   -3.12051010000000     -0.90205708000000     -0.03998903000000
  H   -2.01130745000000     -2.25421182000000     -0.02491990000000
  O   1.83041959000000     -0.91691301000000     -1.27183067000000
  C   2.18393826000000     -0.50508098000000     -2.45489827000000
  O   1.46030424000000      0.11155111000000     -3.24122465000000
  C   3.60334149000000     -0.90473246000000     -2.82408660000000
  H   3.67623562000000     -1.99338864000000     -2.94538874000000
  H   4.32546741000000     -0.62457521000000     -2.04406558000000
  H   3.90095079000000     -0.43760020000000     -3.76481929000000
