38
Coordinates from ORCA-job 4_30_orca
  Pd  0.51060375000000      0.35555277000000     -0.48693919000000
  O   2.11309814000000      1.30314656000000      0.15466877000000
  C   1.60287287000000      2.45566275000000      0.31218064000000
  O   0.36937295000000      2.56920573000000      0.18567980000000
  C   2.55045376000000      3.58952488000000      0.57120233000000
  H   2.07450898000000      4.46822908000000      0.99473283000000
  H   3.03355422000000      3.86544250000000     -0.36660926000000
  H   3.34172858000000      3.23857456000000      1.22504219000000
  N   -1.31315211000000     -0.54591111000000     -1.10020051000000
  C   -1.16194344000000     -1.59917948000000     -2.12918290000000
  H   -0.69350939000000     -1.19584287000000     -3.02528495000000
  H   -2.14694841000000     -2.01512968000000     -2.39345828000000
  H   -0.54529517000000     -2.40536001000000     -1.73611186000000
  C   -2.14370613000000      0.53022644000000     -1.67683091000000
  H   -2.33662902000000      1.30085094000000     -0.93480411000000
  H   -3.11409843000000      0.14268442000000     -2.01095141000000
  H   -1.64364475000000      0.98153428000000     -2.53096977000000
  C   -1.54069120000000     -0.86503218000000      1.45565030000000
  C   -1.09808547000000     -1.92268984000000      2.24176323000000
  C   -0.90184370000000     -1.82252535000000      3.59039275000000
  C   -1.15629279000000     -0.60284362000000      4.17508010000000
  C   -1.50289976000000      0.54291222000000      3.44107852000000
  C   -1.70574779000000      0.39785666000000      2.05512682000000
  H   -1.09175578000000     -0.46818186000000      5.22863479000000
  H   -1.69277632000000      1.53675219000000      3.89022015000000
  H   -0.94456307000000     -2.86430668000000      1.74608159000000
  H   -0.57924043000000     -2.65916945000000      4.15892234000000
  H   -1.98032236000000      1.23791405000000      1.45953966000000
  C   -2.03663245000000     -1.16606867000000      0.05368006000000
  H   -3.10204843000000     -0.90883065000000     -0.03475957000000
  H   -1.99025740000000     -2.24284446000000     -0.07034653000000
  O   1.76170753000000     -0.96191259000000     -1.31579874000000
  C   2.18989079000000     -0.51908618000000     -2.45930705000000
  O   1.52145219000000      0.18071992000000     -3.19266293000000
  C   3.59920122000000     -0.92957343000000     -2.82103381000000
  H   3.65780896000000     -2.00799096000000     -2.90510919000000
  H   4.28183276000000     -0.64426638000000     -2.02899817000000
  H   3.91054682000000     -0.46702756000000     -3.75235633000000
