38
Generated by autodE on: 2023-07-15. 
C    -2.26573  -0.16884   0.64956
C    -1.90039   1.00524   1.34545
C    -3.63717  -0.47611   0.72901
C    -4.60335   0.38389   1.26131
C    -4.21911   1.60239   1.78344
C    -2.86477   1.84205   1.93774
H    -1.89341  -1.65237  -0.91855
H    -3.97886  -1.44714   0.39488
H    -2.55908   2.76849   2.42132
H    -5.65626   0.14533   1.18320
H    -4.95033   2.32924   2.11442
C    -0.47389   1.49654   1.48587
C     0.62259   0.45668   1.81113
H    -0.45051   2.26321   2.26966
H    -0.19353   2.02627   0.57182
C     1.73103   0.53980   0.80812
H     0.19722  -0.54586   1.84690
H     1.02778   0.65873   2.80592
C     1.64416  -0.10054  -0.43401
C     2.64332   0.13569  -1.37904
C     3.65372   1.06404  -1.12837
C     2.78803   1.41077   1.05818
C     3.74884   1.68305   0.10227
H     2.66505  -0.39203  -2.32336
H     4.38956   1.28330  -1.89043
H     2.86205   1.86923   2.03599
H     4.52346   2.41036   0.30383
Pd    0.12902  -1.35960  -0.77207
Br   -1.75120  -3.28937  -0.87316
P     1.43018  -2.95192   0.10843
H     0.92391  -3.54808   1.28231
C     0.38369  -1.29216  -3.89568
O     1.49376  -1.66940  -4.21486
O    -0.43143  -1.80039  -3.04718
O    -0.06068  -0.09206  -4.38390
H     2.75836  -2.73679   0.51948
H     1.60428  -4.11892  -0.66517
H     0.65531   0.26142  -4.91067
