38
Coordinates from ORCA-job reaction-3-cineb5_optts_Compound_2_IRC_B
  C   -1.40958637085147      0.23669027036147     -0.04276037071015
  C   -1.34205342125305      0.89300649487440      1.20267015221583
  C   -2.36884804588414      0.70093005095510     -0.95537124255962
  C   -3.10226766331104      1.85804750443326     -0.73903760958040
  C   -2.90904414257733      2.57689903317929      0.42946705027405
  C   -2.06412828157549      2.06820943995769      1.40311200563900
  H   -1.98221291347573     -1.47224257021328      0.57797621697653
  H   -2.54216294345636      0.14092995556901     -1.86720532800757
  H   -1.94684047015523      2.60752233068034      2.33795217966284
  H   -3.79482285501900      2.20954247383603     -1.49488263217649
  H   -3.41790802175756      3.51981258859987      0.58860377330329
  C   -0.60245490373577      0.33590790349780      2.39956608757730
  C   0.69033628555363     -0.43291656899581      2.12815346844995
  H   -1.29061874514905     -0.32548973026776      2.94023481332118
  H   -0.38013436342099      1.15813300091452      3.08735143037026
  C   1.58452639079674      0.38258155331872      1.24422329985701
  H   0.46519506581665     -1.40059436193096      1.67810764037166
  H   1.17349568489352     -0.64367361395234      3.08739383124658
  C   1.36889092999077      0.38454631768380     -0.13905215871658
  C   2.11921081478414      1.27989586821971     -0.90540825764804
  C   3.05940199925360      2.12985855812177     -0.33638176894422
  C   2.53494879901132      1.22620490545287      1.81124161451901
  C   3.28059709462106      2.09766592079583      1.03128081590521
  H   1.97089393025825      1.32241947738164     -1.97972677706077
  H   3.62044296561232      2.81149342175018     -0.96551305514065
  H   2.68591071389103      1.20467373424213      2.88637213105173
  H   4.01869543507252      2.74630042242112      1.48726938605669
  Pd  0.07515106748561     -0.84403677519897     -1.00863161181602
  Br  -2.53574193121097     -2.65009000431726      1.25871252519180
  P   1.88217914576509     -1.90563334791815     -2.00151972440305
  H   3.05841316126694     -1.12963615653238     -2.12942921848004
  C   -1.05610856275727     -3.22723527789009     -2.31049961101294
  O   -0.00876297836461     -3.84891274164504     -2.12304832238041
  O   -1.31184652156562     -2.02017416307812     -2.07150859850605
  O   -2.10341031639520     -3.89014988418169     -2.87230091858211
  H   1.88093505756760     -2.42089803642619     -3.30768583803486
  H   2.46644966753647     -2.98882327786072     -1.33189109644764
  H   -1.81109825794882     -4.80043069523100     -2.97187777642468
