39
Generated by autodE on: 2023-07-22. 
Ir    0.58647  -0.72605   0.67088
C    -0.03532  -2.66547   1.28626
C     0.54903  -1.99193   2.40125
C     2.15034  -2.20377   0.77386
C     0.95465  -2.79712   0.26295
C     1.91512  -1.70980   2.08138
N    -1.03979  -0.11902  -0.49958
C    -2.42468  -0.07143   0.01446
C    -2.81354   1.32885   0.47253
H    -3.84911   1.31439   0.81124
H    -2.74425   2.04559  -0.34715
H    -2.19835   1.68013   1.29543
C    -3.42136  -0.60629  -1.00840
H    -2.43383  -0.73247   0.88084
H    -4.38089  -0.76336  -0.52069
H    -3.60043   0.09879  -1.82124
H    -3.10326  -1.55627  -1.43905
C    -0.82053   0.20253  -1.71954
C     0.50570   0.18582  -2.23635
H    -1.64285   0.46384  -2.37833
C     1.64818   0.17371  -1.45195
C     2.78663  -0.02136  -2.29616
S     0.80691   0.02436  -3.91455
C     2.47738  -0.09910  -3.62752
H     1.78238   0.89277  -0.43425
H     3.81569  -0.03746  -1.96710
H     3.15103  -0.20251  -4.46779
H    -1.05660  -3.01727   1.24136
H     0.05439  -1.76025   3.33499
H     2.63311  -1.22371   2.72467
O     1.86922   1.90132   0.57338
O     0.16502   1.02749   1.67688
C     0.94424   2.00026   1.38963
C     0.73164   3.32081   2.06139
H     0.73103   4.09199   1.29258
H     1.58118   3.52911   2.71209
H    -0.18296   3.38040   2.64257
H     3.07574  -2.08904   0.22776
H     0.83204  -3.26929  -0.69799
