39
Coordinates from ORCA-job reaction-4-ieip_optts_Compound_1
  Ir  0.57666580545644     -0.66906201233892      0.39565814724499
  C   0.02374544297266     -2.75855788429234      0.32257795998464
  C   0.11790884031189     -2.27131887066768      1.67940600768410
  C   2.19202779140089     -2.07857445673177      0.70435404895322
  C   1.28183191778823     -2.61353644528860     -0.28392875209410
  C   1.48938631718183     -1.91209897549870      1.90928352625012
  N   -1.04984383801528      0.24544799047148     -0.57983341109045
  C   -2.31595750558810      0.60399298753518      0.07634712788017
  C   -3.15018103597304      1.59999930831277     -0.71119637899780
  H   -3.98920757082578      1.91862181250866     -0.09438779083572
  H   -3.57686768545530      1.17073016757166     -1.61941350833990
  H   -2.58705845145459      2.49623069318901     -0.97371220962323
  C   -3.10224327868527     -0.66500182775949      0.38261898313852
  H   -2.01358692176636      1.06488256906085      1.01781865601457
  H   -4.01350989161931     -0.40615340179084      0.91945062518621
  H   -3.39190857671501     -1.18438696598547     -0.53194543376431
  H   -2.54287838853371     -1.35364273886082      1.01408202424014
  C   -0.81980596627226      0.45838156685545     -1.81377472785686
  C   0.52740310403925      0.14972399854158     -2.25960914965308
  H   -1.56632715143647      0.85865267611295     -2.49361322611291
  C   1.67128690751229      0.49742270805565     -1.55129087395184
  C   2.83639942363564     -0.04559939035087     -2.16733550872113
  S   0.87776927634593     -0.79840238792580     -3.63590461300111
  C   2.55933985825055     -0.75947075585419     -3.28811713103381
  H   1.72249233403009      1.32104429187303     -0.81891969451576
  H   3.83873600101493      0.14155827207542     -1.81119348082825
  H   3.25476130040847     -1.25027451090972     -3.95188008839208
  H   -0.87143611146165     -3.13086022856820     -0.15455016477563
  H   -0.66490786001624     -2.28346705515278      2.42384210535393
  H   1.88681738114304     -1.49994345245691      2.82551125536425
  O   1.74917502418633      2.42235078858798      0.65261896306238
  O   0.40895714457723      0.92428660712976      1.63289441510447
  C   1.02340629914331      2.07533134731789      1.56200268325918
  C   0.75789955142626      2.95174876659434      2.76062182598747
  H   -0.30163541129714      2.97381160560479      3.01173990019371
  H   1.11068051980852      3.96309903480360      2.57982758181497
  H   1.28209122665076      2.55484281435255      3.63126182895209
  H   3.23492064845269     -1.84863268139743      0.54352381749736
  H   1.53302352937829     -2.86398596472411     -1.30409533957852
