39
Coordinates from ORCA-job reaction-4-ieip_optts_Compound_2_IRC_F
  Ir  0.60930136689130     -0.70421255726011      0.40527500423301
  C   -0.05473565505874     -2.75436486112515      0.24863872100383
  C   0.04786805107133     -2.32970086571423      1.62563663744060
  C   2.14319853036142     -2.21000352817942      0.68415685358852
  C   1.21927741706471     -2.65548513929050     -0.33448635983343
  C   1.43153244945092     -2.05439519988443      1.88576765486363
  N   -0.98650378791648      0.30872184073995     -0.52845098585526
  C   -2.22952445805955      0.71422054847539      0.14144855500161
  C   -3.01233132434751      1.77371530197561     -0.61502507538574
  H   -3.82993420306419      2.12105938007865      0.01498494121133
  H   -3.46761675989402      1.39007814110457     -1.52990264053375
  H   -2.39967196957952      2.64246709231734     -0.85739908438415
  C   -3.07516442840547     -0.52343825537988      0.41459043114184
  H   -1.90684342589580      1.13263535762679      1.09621775092350
  H   -3.97375627139192     -0.23811072670938      0.95915098213024
  H   -3.38724580265145     -1.00186140999647     -0.51476367398238
  H   -2.54750504539571     -1.25497703476059      1.02460107402500
  C   -0.76281483104387      0.51813117047595     -1.76327113591354
  C   0.57034284810240      0.15833983011783     -2.21523997455944
  H   -1.49763191389182      0.95058122796776     -2.43573889781409
  C   1.72130993223812      0.47061825795458     -1.49798930068908
  C   2.87501563939973     -0.10100468049647     -2.11070660012815
  S   0.90258288568011     -0.78000327070216     -3.59989516991176
  C   2.58393269065560     -0.79183145647768     -3.24183432827418
  H   1.74168661551206      1.32602490982784     -0.81259162273487
  H   3.88033049197993      0.04305515130589     -1.74389413971620
  H   3.26951804429924     -1.28998078352837     -3.91033889656696
  H   -0.95956595026956     -3.06611005802149     -0.25298766185577
  H   -0.74389509776989     -2.33262315297137      2.36030253351547
  H   1.83657789223982     -1.69882477695858      2.82222802851899
  O   0.94329571494675      2.64883735835527      0.37562305860143
  O   0.66235571201225      0.85605451087669      1.68628343689784
  C   0.78626710030634      2.14027194579273      1.46761387955327
  C   0.72483339191610      2.94273699609755      2.74615124213283
  H   -0.16687416090821      2.69390010991982      3.32148969723678
  H   0.73511693510373      4.01010871380775      2.54309183550381
  H   1.58037509015982      2.70073722055136      3.37808406863870
  H   3.20136807698989     -2.04270155442492      0.54780546896028
  H   1.47102558502041     -2.88106269796769     -1.36042883419934
