27
Coordinates from ORCA-job reaction-2-cineb10_optts_Compound_1
  Pd  -2.42335263048178     -1.30034497811042      0.36843077903150
  Cl  -3.36607173821789     -3.06186548848221     -0.75597644061928
  Cl  2.44667086296165     -3.06446822283161      0.15317597700025
  Cl  -4.12080783899427     -1.25664081071200      2.04197787535954
  N   -1.42803754564998      0.28402445206929      1.25086295828974
  C   -1.76837794403898      0.95046880753713      2.33558978403664
  C   -0.98656027942871      1.99901702790166      2.83125579357067
  C   0.17235000250709      2.34930833879957      2.17929779959726
  C   -0.29524361142917      0.61649601049811      0.59531854252560
  C   0.54757177879264      1.65102180614135      1.02482982248555
  H   0.79310660820484      3.15749304572619      2.54827807978483
  H   -2.68770114533295      0.62708548611662      2.81080472642470
  H   -1.30684423166042      2.51740459657740      3.72419837644670
  C   -0.00643951134680     -0.14811162296803     -0.56633043419029
  C   1.72409678073972      1.91911064315541      0.25567209054390
  C   2.00770781207886      1.19903442876189     -0.85703690382050
  C   1.15235644436206      0.14159747313467     -1.31162465063090
  H   2.38781705664871      2.71123911820593      0.58111679536539
  H   2.90418322564498      1.41926408470128     -1.42539144209246
  C   -0.91959825297894     -1.17370874314090     -0.90911375749619
  C   1.41718791254698     -0.62600365996231     -2.44958131267037
  C   -0.61138911753421     -1.90409175827604     -2.05144941558523
  C   0.53678161857534     -1.62425956218736     -2.80617964181546
  H   2.28403305093164     -0.43287172577547     -3.03037502112827
  H   0.74069751878997     -2.21703466094386     -3.69049752491006
  H   2.05780125232282     -2.02274404615057     -0.47867544114628
  H   -1.27254807801320     -2.70340003978576     -2.35925741435707
