30
Coordinates from ORCA-job 9_10_orca
  Lu  0.10078034000000      0.35824465000000     -0.19857945000000
  C   0.37069475000000      0.98819719000000      2.38692398000000
  C   1.32697032000000     -0.02643466000000      2.16558079000000
  C   2.28141070000000      0.45682137000000      1.25574021000000
  C   1.92794340000000      1.78048682000000      0.92089542000000
  C   0.73638521000000      2.10103201000000      1.61006794000000
  H   2.49446855000000      2.44313411000000      0.28118050000000
  H   0.21334880000000      3.04638869000000      1.57801373000000
  H   -0.44387777000000      0.94383182000000      3.09471852000000
  H   1.36213861000000     -0.98567501000000      2.66805648000000
  H   3.17690390000000     -0.06216373000000      0.94731247000000
  C   1.02226044000000     -0.03924110000000     -2.56452695000000
  C   -0.27630025000000     -0.58964444000000     -2.60218139000000
  C   1.01924587000000     -1.91336123000000     -1.27673096000000
  C   1.82107902000000     -0.85454868000000     -1.73456566000000
  H   1.35702748000000      0.83881562000000     -3.09956656000000
  C   -0.26764443000000     -1.76397386000000     -1.82871948000000
  H   -1.11287882000000     -0.21077469000000     -3.17086452000000
  H   2.87757712000000     -0.73766925000000     -1.54922426000000
  H   1.35700938000000     -2.75603473000000     -0.68346393000000
  H   -1.07854471000000     -2.47215034000000     -1.73076880000000
  C   -2.45446534000000     -1.58343730000000      1.35126700000000
  H   -2.51187680000000     -1.41020479000000      2.43154393000000
  H   -2.85367789000000     -2.56677978000000      1.08562134000000
  H   -2.95487577000000     -0.77919237000000      0.79476631000000
  C   -1.80521095000000      1.68281872000000     -0.70945106000000
  H   -1.37679892000000     -1.64375414000000      1.08350454000000
  H   -1.43868135000000      2.52165401000000     -1.32856106000000
  H   -2.36231543000000      2.14827184000000      0.11971314000000
  H   -2.55033327000000      1.16974383000000     -1.33850793000000
