30
Coordinates from ORCA-job 9_2_orca
  Lu  0.06737455000000      0.34364263000000     -0.18763960000000
  C   0.37410606000000      0.99563171000000      2.39672382000000
  C   1.32816660000000     -0.02536859000000      2.19006356000000
  C   2.29694273000000      0.47024248000000      1.30707527000000
  C   1.91387140000000      1.77230482000000      0.90708162000000
  C   0.74756013000000      2.10800070000000      1.61911807000000
  H   2.49494020000000      2.44039452000000      0.29153579000000
  H   0.20576689000000      3.04547751000000      1.56591903000000
  H   -0.45214918000000      0.96701173000000      3.08992485000000
  H   1.37364675000000     -0.96960598000000      2.72387972000000
  H   3.16806261000000     -0.07360625000000      0.95220556000000
  C   1.01765308000000     -0.02667936000000     -2.54534868000000
  C   -0.26225503000000     -0.60458715000000     -2.62636675000000
  C   1.01919829000000     -1.94253721000000     -1.30292318000000
  C   1.82248808000000     -0.88649620000000     -1.76335220000000
  H   1.35697180000000      0.83111445000000     -3.10491178000000
  C   -0.27355512000000     -1.76723628000000     -1.83234281000000
  H   -1.11737175000000     -0.20568924000000     -3.16198801000000
  H   2.87837661000000     -0.75311378000000     -1.55639314000000
  H   1.35704139000000     -2.78106700000000     -0.69193045000000
  H   -1.09424662000000     -2.46841931000000     -1.78307310000000
  C   -2.25411617000000     -1.63895852000000      1.31775406000000
  H   -2.54781850000000     -1.40736835000000      2.41783626000000
  H   -2.96301541000000     -2.50601082000000      1.08933117000000
  H   -2.75600640000000     -0.78938656000000      0.76556591000000
  C   -1.81727773000000      1.67287631000000     -0.68008263000000
  H   -1.38713268000000     -1.73870804000000      1.16632003000000
  H   -1.45791516000000      2.52237151000000     -1.31457538000000
  H   -2.44818285000000      2.22136871000000      0.08005267000000
  H   -2.60296763000000      1.21420600000000     -1.33714643000000
