30
Coordinates from ORCA-job 9_3_orca
  Lu  0.06832111000000      0.34757633000000     -0.18940716000000
  C   0.36792687000000      1.00041885000000      2.39962503000000
  C   1.33436885000000     -0.01932788000000      2.18334663000000
  C   2.29643330000000      0.46604530000000      1.30311829000000
  C   1.91886739000000      1.77043946000000      0.91067599000000
  C   0.74576076000000      2.10167514000000      1.62300716000000
  H   2.49641141000000      2.44214726000000      0.29031229000000
  H   0.20522996000000      3.04684729000000      1.56706848000000
  H   -0.44679610000000      0.96595512000000      3.08993295000000
  H   1.37340433000000     -0.97515865000000      2.72338188000000
  H   3.16708596000000     -0.07112503000000      0.95301024000000
  C   1.01661433000000     -0.03186197000000     -2.54801222000000
  C   -0.26274833000000     -0.60653885000000     -2.62263758000000
  C   1.02376805000000     -1.93229298000000     -1.30635581000000
  C   1.82412268000000     -0.89001323000000     -1.75660736000000
  H   1.35793424000000      0.83406679000000     -3.10648360000000
  C   -0.27653171000000     -1.76742589000000     -1.83559362000000
  H   -1.11717203000000     -0.20670590000000     -3.16242776000000
  H   2.87670701000000     -0.75262279000000     -1.55706486000000
  H   1.35825483000000     -2.78300794000000     -0.68928838000000
  H   -1.09150916000000     -2.46992281000000     -1.78185837000000
  C   -2.42329325000000     -1.61423499000000      1.36216224000000
  H   -2.52971850000000     -1.41608010000000      2.38618346000000
  H   -2.93120486000000     -2.49531427000000      1.09161755000000
  H   -2.75783923000000     -0.80411750000000      0.77510905000000
  C   -1.83160557000000      1.68252754000000     -0.68217299000000
  H   -1.28902134000000     -1.74321566000000      1.14146178000000
  H   -1.45818280000000      2.51725398000000     -1.31190246000000
  H   -2.43635665000000      2.21063115000000      0.07259405000000
  H   -2.59232925000000      1.21535628000000     -1.33168645000000
