30
Coordinates from ORCA-job 9_5_orca
  Lu  0.03495391000000      0.38994142000000     -0.20764207000000
  C   0.38428066000000      0.99262854000000      2.39670742000000
  C   1.33164485000000     -0.03425208000000      2.18650222000000
  C   2.29723543000000      0.46862743000000      1.29452440000000
  C   1.91876133000000      1.77118298000000      0.90729467000000
  C   0.75129453000000      2.11633913000000      1.63156962000000
  H   2.49695656000000      2.44525387000000      0.28800948000000
  H   0.20603529000000      3.04073665000000      1.56636142000000
  H   -0.44130343000000      0.95733121000000      3.09779415000000
  H   1.36995665000000     -0.97969800000000      2.70249959000000
  H   3.17222519000000     -0.06675452000000      0.95341033000000
  C   1.02139357000000     -0.02804954000000     -2.54851723000000
  C   -0.26523657000000     -0.61197015000000     -2.63699520000000
  C   1.02809224000000     -1.94415067000000     -1.29172640000000
  C   1.82193963000000     -0.87746655000000     -1.75525060000000
  H   1.35649986000000      0.83695083000000     -3.10544962000000
  C   -0.26856435000000     -1.76426695000000     -1.82978865000000
  H   -1.11538194000000     -0.20612192000000     -3.15797039000000
  H   2.87824390000000     -0.74899464000000     -1.55594307000000
  H   1.35581497000000     -2.77255233000000     -0.68952188000000
  H   -1.08134534000000     -2.47895509000000     -1.76614516000000
  C   -2.41465793000000     -1.59454262000000      1.35056208000000
  H   -2.51127562000000     -1.41782564000000      2.41465213000000
  H   -2.87791618000000     -2.54222983000000      1.08910131000000
  H   -2.84407041000000     -0.78195605000000      0.77484511000000
  C   -1.81788749000000      1.68030984000000     -0.69283611000000
  H   -1.38944561000000     -1.69479077000000      1.12253529000000
  H   -1.45417069000000      2.50532148000000     -1.31040409000000
  H   -2.40254728000000      2.17606744000000      0.07560145000000
  H   -2.56502965000000      1.20673820000000     -1.32254755000000
