30
Coordinates from ORCA-job 9_6_orca
  Lu  0.04644228000000      0.38440723000000     -0.20546095000000
  C   0.38388676000000      0.99216188000000      2.39399608000000
  C   1.32849879000000     -0.03515643000000      2.18867794000000
  C   2.29835228000000      0.46566414000000      1.28441803000000
  C   1.92133897000000      1.77360646000000      0.91017482000000
  C   0.74659118000000      2.11513447000000      1.62790639000000
  H   2.49628572000000      2.44432848000000      0.28733769000000
  H   0.20769228000000      3.04048286000000      1.56807869000000
  H   -0.44282060000000      0.95568719000000      3.09868484000000
  H   1.36929507000000     -0.97819380000000      2.69727730000000
  H   3.17156874000000     -0.06532713000000      0.95368311000000
  C   1.02294771000000     -0.02974220000000     -2.55263984000000
  C   -0.27046352000000     -0.60686001000000     -2.63160839000000
  C   1.02589455000000     -1.94578249000000     -1.28641690000000
  C   1.82637890000000     -0.87010424000000     -1.75237041000000
  H   1.35635223000000      0.83629074000000     -3.10386994000000
  C   -0.26937321000000     -1.76536191000000     -1.83136750000000
  H   -1.11375885000000     -0.20753162000000     -3.15926028000000
  H   2.87630584000000     -0.74831424000000     -1.55546355000000
  H   1.35524625000000     -2.76832646000000     -0.69079272000000
  H   -1.08064562000000     -2.47790200000000     -1.76189326000000
  C   -2.42105850000000     -1.59259732000000      1.34919826000000
  H   -2.51213125000000     -1.41499085000000      2.42438270000000
  H   -2.87829159000000     -2.55046384000000      1.08662577000000
  H   -2.85846720000000     -0.77626594000000      0.77351512000000
  C   -1.81878230000000      1.68295039000000     -0.69632687000000
  H   -1.37898364000000     -1.69207817000000      1.11743569000000
  H   -1.45166261000000      2.50701912000000     -1.31250160000000
  H   -2.39822686000000      2.17335485000000      0.08242701000000
  H   -2.56371621000000      1.20142307000000     -1.32508504000000
