30
Coordinates from ORCA-job 9_8_orca
  Lu  0.09450657000000      0.36280263000000     -0.19945624000000
  C   0.37012660000000      0.99006805000000      2.39030890000000
  C   1.32935902000000     -0.02668893000000      2.16858749000000
  C   2.28251728000000      0.45565836000000      1.25790086000000
  C   1.92835079000000      1.78122665000000      0.92063528000000
  C   0.73765263000000      2.10119346000000      1.61169176000000
  H   2.49467169000000      2.44284803000000      0.28216999000000
  H   0.21231397000000      3.04581302000000      1.57675618000000
  H   -0.44221920000000      0.94549823000000      3.09544332000000
  H   1.36324379000000     -0.98470297000000      2.67234865000000
  H   3.17651549000000     -0.06217805000000      0.94896198000000
  C   1.02198874000000     -0.03900402000000     -2.56519879000000
  C   -0.27538502000000     -0.59060513000000     -2.60427200000000
  C   1.02165810000000     -1.91715016000000     -1.27764695000000
  C   1.82198611000000     -0.85656424000000     -1.73489926000000
  H   1.35704663000000      0.83829625000000     -3.09976297000000
  C   -0.26969293000000     -1.76641704000000     -1.83128874000000
  H   -1.11314033000000     -0.21049827000000     -3.16955951000000
  H   2.87726942000000     -0.73967375000000     -1.55041934000000
  H   1.35644988000000     -2.75772800000000     -0.68534581000000
  H   -1.07754131000000     -2.47323085000000     -1.73536085000000
  C   -2.45249663000000     -1.58465321000000      1.35286572000000
  H   -2.51091389000000     -1.41007285000000      2.43404489000000
  H   -2.85583675000000     -2.56861628000000      1.08422962000000
  H   -2.94431728000000     -0.77387592000000      0.78885834000000
  C   -1.80807975000000      1.68331406000000     -0.70781447000000
  H   -1.37475812000000     -1.65184585000000      1.08727614000000
  H   -1.43912515000000      2.52054735000000     -1.32744603000000
  H   -2.36819022000000      2.15220570000000      0.11661816000000
  H   -2.55321756000000      1.17269147000000     -1.33789024000000
