30
Coordinates from ORCA-job 9_9_orca
  Lu  0.11638306000000      0.34690907000000     -0.19639887000000
  C   0.37210772000000      0.98354442000000      2.37850573000000
  C   1.32102968000000     -0.02580228000000      2.15810320000000
  C   2.27865864000000      0.45971377000000      1.25036673000000
  C   1.92693024000000      1.77864686000000      0.92154238000000
  C   0.73323317000000      2.10063046000000      1.60602954000000
  H   2.49396337000000      2.44384558000000      0.27871967000000
  H   0.21592242000000      3.04782034000000      1.58114123000000
  H   -0.44800261000000      0.93968750000000      3.09291598000000
  H   1.35939007000000     -0.98809243000000      2.65738196000000
  H   3.17786988000000     -0.06212810000000      0.94321016000000
  C   1.02293614000000     -0.03983071000000     -2.56285608000000
  C   -0.27857640000000     -0.58725522000000     -2.59698209000000
  C   1.01324670000000     -1.90393824000000     -1.27445293000000
  C   1.81882312000000     -0.84953604000000     -1.73373601000000
  H   1.35697986000000      0.84010729000000     -3.09907807000000
  C   -0.26254986000000     -1.75789773000000     -1.82232977000000
  H   -1.11222846000000     -0.21146213000000     -3.17411007000000
  H   2.87834238000000     -0.73268409000000     -1.54625211000000
  H   1.35840085000000     -2.75182358000000     -0.67878374000000
  H   -1.08104014000000     -2.46946313000000     -1.71934845000000
  C   -2.45936150000000     -1.58041336000000      1.34729102000000
  H   -2.51427154000000     -1.41053292000000      2.42532410000000
  H   -2.84830885000000     -2.56221246000000      1.08908251000000
  H   -2.98113452000000     -0.79241429000000      0.80945931000000
  C   -1.79807630000000      1.68158684000000     -0.71352121000000
  H   -1.38187433000000     -1.62363025000000      1.07412466000000
  H   -1.43757763000000      2.52440625000000     -1.33133414000000
  H   -2.34770497000000      2.13848840000000      0.12741030000000
  H   -2.54316010000000      1.16241312000000     -1.34004411000000
