21
Coordinates from ORCA-job 3_12_orca
  C   -1.78953453000000      0.17609154000000     -0.28552013000000
  C   -1.96499725000000     -0.80425011000000     -1.24589434000000
  C   -1.44630092000000     -2.06180061000000     -1.02176555000000
  C   -0.66077403000000     -2.36089811000000      0.06987246000000
  C   -1.10153725000000     -0.17169625000000      0.86714261000000
  C   -0.47411308000000     -1.39393169000000      1.04059390000000
  H   -2.14719697000000      1.21078404000000     -0.39874548000000
  H   -2.48963206000000     -0.51490770000000     -2.13580184000000
  H   -1.63465040000000     -2.81393474000000     -1.72090339000000
  H   0.14739755000000     -1.54114314000000      1.93647584000000
  H   -0.16680153000000     -3.30027360000000      0.23164933000000
  Pd  1.51065625000000      1.26292195000000      0.10945548000000
  O   2.81335757000000      1.10490388000000     -1.48366846000000
  O   2.62515780000000     -0.41692327000000      0.03033804000000
  O   0.43623102000000      2.90243219000000      0.00058040000000
  C   0.12721946000000      2.93907460000000      1.23204563000000
  O   0.57167407000000      2.07440434000000      2.00934724000000
  H   -1.04986390000000      0.53425695000000      1.67548649000000
  C   3.19218941000000      0.00629182000000     -1.00916027000000
  H   4.01823134000000     -0.55557136000000     -1.44834029000000
  H   -0.54160099000000      3.75064193000000      1.55868154000000
