21
Coordinates from ORCA-job 3_14_orca
  C   -1.76066557000000      0.18658481000000     -0.26530690000000
  C   -1.98961451000000     -0.78659711000000     -1.23580592000000
  C   -1.47965007000000     -2.08200056000000     -1.01825884000000
  C   -0.67034000000000     -2.36504220000000      0.09832427000000
  C   -1.07349953000000     -0.14053547000000      0.87501972000000
  C   -0.47389389000000     -1.36076343000000      1.04223394000000
  H   -2.11887369000000      1.18633486000000     -0.42363160000000
  H   -2.54167155000000     -0.54472702000000     -2.16431549000000
  H   -1.70636642000000     -2.87843507000000     -1.73781452000000
  H   0.15170551000000     -1.54836566000000      1.89277824000000
  H   -0.19686271000000     -3.35804830000000      0.21960908000000
  Pd  1.49518637000000      1.24957736000000      0.12141814000000
  O   2.84689747000000      1.13110908000000     -1.46692126000000
  O   2.62429810000000     -0.41742627000000      0.01770731000000
  O   0.44623689000000      2.90445431000000      0.01374226000000
  C   0.12257307000000      2.94958335000000      1.24176828000000
  O   0.56328651000000      2.08630849000000      2.01315060000000
  H   -0.99819859000000      0.57156875000000      1.67316470000000
  C   3.23002956000000      0.03414347000000     -0.99183024000000
  H   4.05555649000000     -0.53607345000000     -1.44678701000000
  H   -0.54665947000000      3.74603521000000      1.55574306000000
