21
Coordinates from ORCA-job 3_3_orca
  C   -1.78804900000000      0.18406714000000     -0.24104712000000
  C   -1.74235490000000     -0.72840284000000     -1.30688361000000
  C   -1.13414737000000     -1.95761323000000     -1.15600399000000
  C   -0.47144012000000     -2.25433610000000      0.02078010000000
  C   -1.23782707000000     -0.11068116000000      1.07949264000000
  C   -0.48190478000000     -1.35315665000000      1.09923978000000
  H   -2.31936049000000      1.09959224000000     -0.40881394000000
  H   -2.26553404000000     -0.49620757000000     -2.22791759000000
  H   -1.19900869000000     -2.68764897000000     -1.93874000000000
  H   0.06404004000000     -1.62627231000000      1.98484085000000
  H   0.00783664000000     -3.21514825000000      0.13633235000000
  Pd  1.40398608000000      1.20370430000000      0.06583634000000
  O   2.64413792000000      0.89046716000000     -1.62383791000000
  O   2.60269060000000     -0.45583912000000      0.05755128000000
  O   0.34216372000000      2.89806234000000     -0.05795188000000
  C   0.13595662000000      2.96900235000000      1.24962481000000
  O   0.64264336000000      2.14846310000000      1.97213786000000
  H   -1.55689385000000      0.66723090000000      2.33180371000000
  C   3.07339594000000     -0.15870516000000     -1.07486132000000
  H   3.80892789000000     -0.80329303000000     -1.56718618000000
  H   -0.53196847000000      3.78535319000000      1.60444766000000
