21
Coordinates from ORCA-job 3_4_orca
  C   -1.77926529000000      0.18379093000000     -0.22094329000000
  C   -1.76100314000000     -0.73680867000000     -1.29631381000000
  C   -1.16382740000000     -1.97631161000000     -1.15046010000000
  C   -0.48999499000000     -2.25740166000000      0.02393465000000
  C   -1.23619338000000     -0.07077682000000      1.12221149000000
  C   -0.49107638000000     -1.33169157000000      1.09724335000000
  H   -2.29948852000000      1.11346603000000     -0.41856441000000
  H   -2.28965884000000     -0.50433076000000     -2.22196153000000
  H   -1.25135760000000     -2.71517626000000     -1.92646849000000
  H   0.08072817000000     -1.62283242000000      1.97327327000000
  H   -0.01403534000000     -3.22997832000000      0.14127468000000
  Pd  1.41001182000000      1.21756782000000      0.09125614000000
  O   2.66687483000000      0.90681972000000     -1.61590032000000
  O   2.59066685000000     -0.45353916000000      0.04681696000000
  O   0.34854265000000      2.89132899000000     -0.04417776000000
  C   0.12779593000000      2.97322509000000      1.22618285000000
  O   0.64308166000000      2.12956155000000      1.98745205000000
  H   -1.49854287000000      0.61266051000000      2.21296813000000
  C   3.09805431000000     -0.12950636000000     -1.06396228000000
  H   3.83731301000000     -0.78442755000000     -1.56325285000000
  H   -0.53335785000000      3.78278549000000      1.59786802000000
