21
Coordinates from ORCA-job 3_5_orca
  C   -1.77006334000000      0.18441623000000     -0.19364337000000
  C   -1.77760183000000     -0.73793727000000     -1.27852094000000
  C   -1.19192246000000     -1.98966333000000     -1.14137499000000
  C   -0.50832902000000     -2.25287900000000      0.03450983000000
  C   -1.23022825000000     -0.06097222000000      1.12739654000000
  C   -0.50293562000000     -1.30622343000000      1.09914720000000
  H   -2.28111490000000      1.12465541000000     -0.42838121000000
  H   -2.31033600000000     -0.51148801000000     -2.21301152000000
  H   -1.29900015000000     -2.74106329000000     -1.91604098000000
  H   0.09509189000000     -1.62003263000000      1.96134985000000
  H   -0.03480696000000     -3.23978987000000      0.14674342000000
  Pd  1.41975575000000      1.22356651000000      0.09990762000000
  O   2.68948379000000      0.92666653000000     -1.60588447000000
  O   2.58622799000000     -0.45150539000000      0.04049840000000
  O   0.35273121000000      2.88589457000000     -0.01630484000000
  C   0.12303726000000      2.97654857000000      1.20094170000000
  O   0.63861170000000      2.12006980000000      1.99729782000000
  H   -1.44521858000000      0.56353346000000      2.10415300000000
  C   3.11075484000000     -0.10927018000000     -1.05625013000000
  H   3.86286327000000     -0.76353013000000     -1.55555551000000
  H   -0.53348198000000      3.77794124000000      1.59165949000000
