39
Generated by autodE on: 2023-07-15. 
Ir    0.45848  -0.77718   0.88884
C    -0.05532  -2.83166   1.41507
C     0.54856  -2.11637   2.51117
C     2.07816  -2.29812   0.84723
C     0.88692  -2.91801   0.37038
C     1.88304  -1.78222   2.16401
N    -1.04433  -0.07753  -0.48384
C    -2.45777  -0.01801   0.02921
C    -2.85147   1.37079   0.54294
H    -3.89608   1.30735   0.85782
H    -2.79692   2.12820  -0.24511
H    -2.23900   1.68282   1.39063
C    -3.45275  -0.52413  -1.01277
H    -2.46750  -0.71891   0.87536
H    -4.41255  -0.62896  -0.51482
H    -3.61872   0.18204  -1.82993
H    -3.17968  -1.49835  -1.42590
C    -0.76548   0.28087  -1.68701
C     0.56993   0.23290  -2.24903
H    -1.59935   0.55967  -2.34631
C     1.82608   0.33493  -1.68158
C     2.84942  -0.03646  -2.56935
S     0.71253   0.11298  -3.96552
C     2.40314  -0.06421  -3.85967
H     1.95112   0.72153  -0.70940
H     3.87759  -0.11978  -2.26430
H     3.03132  -0.08257  -4.73014
H    -1.02384  -3.32174   1.45774
H     0.07868  -1.94946   3.46550
H     2.62336  -1.31610   2.80232
O     1.91334   1.96071   0.57001
O     0.21451   1.06007   1.72072
C     1.03959   2.04103   1.35871
C     0.80351   3.38912   2.03837
H     0.83257   4.17429   1.27624
H     1.67413   3.58556   2.66804
H    -0.09328   3.51842   2.64221
H     2.97249  -2.15879   0.25680
H     0.72567  -3.40788  -0.58280
