39
Coordinates from ORCA-job reaction-4-dhsgs_optts_Compound_2_IRC_F
  Ir  0.48809205501697     -0.73214882895103      0.69847399553715
  C   0.08759768894100     -2.62126444247051      1.49937052883165
  C   1.37548685580595     -2.22352007707301      1.99410779044063
  C   1.46467125595585     -2.38135708801482     -0.31956134324266
  C   0.17825703720997     -2.78180860836864      0.07033067043239
  C   2.20070927525237     -2.02630856706935      0.87264205740935
  N   -0.84708012122157      0.23366672609300     -0.58982860594362
  C   -2.19282991290011      0.59503762116094     -0.08099049400523
  C   -2.87723140556823      1.70674215662578     -0.86012231410397
  H   -3.75704598925403      2.02851390235616     -0.30386104456842
  H   -3.23373599650259      1.38924523306735     -1.84099137917685
  H   -2.22933549278672      2.57504597164962     -0.97765163758897
  C   -3.05375348957330     -0.66018014289892     -0.00129866445153
  H   -2.02945239588610      0.95724447224452      0.93504680026578
  H   -4.02405235192292     -0.41429529560136      0.42839947778347
  H   -3.22676439153287     -1.08560233454218     -0.99054838809508
  H   -2.60749812137398     -1.42567281788542      0.63407307763829
  C   -0.54404341423227      0.41982124590933     -1.81546436007132
  C   0.79081027241731      0.17973965109346     -2.33276525634110
  H   -1.30474704044969      0.77970435427111     -2.50432482545517
  C   1.98041363559227      0.62918678712169     -1.81069066940322
  C   3.09750088793229      0.18636727061549     -2.55876636076956
  S   1.04512229302218     -0.75081388128023     -3.76071807685206
  C   2.74066656446293     -0.58333975297382     -3.62588767061171
  H   2.02887324851637      1.30821373684704     -0.96986321520489
  H   4.12177155381306      0.44438631637290     -2.33218744328686
  H   3.39028974966455     -1.04693909317322     -4.35347523009250
  H   -0.77947774071575     -2.83876492312011      2.10864739044789
  H   1.62984303367151     -2.03914885646900      3.02774173771753
  H   3.21718457896576     -1.65962047655838      0.88397393128321
  O   0.61838109791944      2.38534512110364      0.53111786373375
  O   0.39227173825862      0.74528876167078      2.01541419591466
  C   0.41018027350487      2.01737775544697      1.66511241170516
  C   0.17941294869012      2.95432369651572      2.82076973749719
  H   0.10695126132988      3.98136707598409      2.47477140548758
  H   1.00683950077342      2.88067557060637      3.52754719238502
  H   -0.72323761664190      2.69390286928402      3.37225419946250
  H   1.85002278779327     -2.34088225005686     -1.32866241695314
  H   -0.61900513282317     -3.10228915929281     -0.58388410311806
