39
Coordinates from ORCA-job reaction-4-dhsgs_optts_Compound_1
  Ir  0.54987473477501     -0.73146842298748      0.55377974317931
  C   0.02127345483105     -2.46038991078745      1.59475206937788
  C   1.35973981635244     -2.12012765507424      1.99632100223484
  C   1.36092914308747     -2.56905226337915     -0.27360747332874
  C   0.05777617101363     -2.80184855268634      0.19071592395133
  C   2.16642431229433     -2.13710004950045      0.84847396459736
  N   -0.96166434914249      0.22862733826876     -0.54097397737170
  C   -2.28026050264749      0.56154752312134      0.02348914671963
  C   -2.99730333236566      1.67848411067847     -0.71475020786398
  H   -3.87678474252072      1.96740010441758     -0.14099193284022
  H   -3.35730617430564      1.37613468761753     -1.69960347023643
  H   -2.36813033496592      2.56249899180609     -0.81596327396535
  C   -3.12187970725638     -0.70660639536245      0.10284060884793
  H   -2.07585058796449      0.90039136454314      1.04028858399922
  H   -4.07725941715951     -0.48207211820104      0.57458567303791
  H   -3.32762296293081     -1.10910781891417     -0.88985274444445
  H   -2.64118809434250     -1.48097744637174      0.70008696456497
  C   -0.64960326731776      0.49413434287233     -1.74431285213503
  C   0.71829926744659      0.21849291334293     -2.15503838796013
  H   -1.35961975090757      0.92775863403946     -2.44253699090459
  C   1.85463434017293      0.64134474375444     -1.49086806991142
  C   3.03515441219321      0.13604768614591     -2.09875440854606
  S   1.09740282873675     -0.74998921050569     -3.51716670725976
  C   2.77614402106721     -0.62848470977724     -3.19276049996967
  H   1.83377204683408      1.42933509340485     -0.74510687247358
  H   4.03331937981460      0.37297734543137     -1.76168815099813
  H   3.48646398684056     -1.11167965428985     -3.84606636442766
  H   -0.82999218602810     -2.55537708597356      2.25393440594182
  H   1.66130289664321     -1.80671319031660      2.98544834837336
  H   3.21197435941400     -1.86869318168490      0.80401565465762
  O   0.39185188457555      2.50801030274726      0.45806077186884
  O   0.52172555404848      0.77981505233867      1.86405358815158
  C   0.42007205228451      2.05820348183711      1.58421172455983
  C   0.35329208215179      2.92308218094340      2.81525585402280
  H   0.21444225844392      3.96501516205236      2.54134805484424
  H   1.27398232413442      2.83049480056952      3.39224373539544
  H   -0.45999845463879      2.60979133634774      3.46964528458393
  H   1.71054285651015     -2.69277231846672     -1.28818777340572
  H   -0.78154031917206     -3.13548721200118     -0.40208094486724
