39
Coordinates from ORCA-job 5_10_orca
  Ir  0.62298430000000     -0.77001461000000      0.48208902000000
  C   0.05826013000000     -2.92600477000000      1.10721485000000
  C   0.14948259000000     -2.19334778000000      2.30457033000000
  C   2.18624213000000     -2.06705579000000      1.21602824000000
  C   1.27038831000000     -2.81201821000000      0.38609368000000
  C   1.49190727000000     -1.71012591000000      2.38111246000000
  N   -1.11163811000000     -0.13900011000000     -0.54207939000000
  C   -2.49863181000000     -0.14550006000000      0.03181882000000
  C   -2.79110245000000      1.11023752000000      0.84129474000000
  H   -3.81516436000000      1.04941371000000      1.21378801000000
  H   -2.71862820000000      2.00724416000000      0.22574062000000
  H   -2.13381027000000      1.19906744000000      1.70003189000000
  C   -3.56731212000000     -0.35727858000000     -1.02702873000000
  H   -2.51717903000000     -1.00284067000000      0.70430334000000
  H   -4.51516857000000     -0.51117186000000     -0.51265870000000
  H   -3.71338441000000      0.50225065000000     -1.68357252000000
  H   -3.37927625000000     -1.24284718000000     -1.63070267000000
  C   -0.88600468000000      0.23059679000000     -1.75167713000000
  C   0.44807637000000      0.17256821000000     -2.27506834000000
  H   -1.71669721000000      0.53943379000000     -2.36979892000000
  C   1.51218519000000     -0.16196885000000     -1.44526781000000
  C   2.68463675000000     -0.20050942000000     -2.34445078000000
  S   0.77426823000000      0.34981585000000     -3.97804207000000
  C   2.42007063000000      0.01550477000000     -3.68856032000000
  H   2.07231049000000      1.35617734000000     -0.54532115000000
  H   3.71676399000000     -0.39662826000000     -2.07044233000000
  H   3.11946055000000      0.01536779000000     -4.53408739000000
  H   -0.75045055000000     -3.57270622000000      0.81468229000000
  H   -0.56597941000000     -2.18547803000000      3.11462773000000
  H   1.91530360000000     -1.21124718000000      3.23706341000000
  O   2.08230942000000      2.08924232000000      0.09349961000000
  O   0.42646969000000      1.16889519000000      1.35199525000000
  C   1.17570296000000      2.10136323000000      1.01988170000000
  C   0.98427964000000      3.45364886000000      1.77290499000000
  H   0.89175659000000      4.29222929000000      1.07479220000000
  H   1.85186425000000      3.68596571000000      2.40006230000000
  H   0.10315403000000      3.48459840000000      2.43803133000000
  H   3.21758584000000     -1.86822211000000      1.00256812000000
  H   1.50269255000000     -3.35269172000000     -0.51370052000000
