39
Coordinates from ORCA-job 5_11_orca
  Ir  0.68063461000000     -0.76861429000000      0.49124559000000
  C   -0.03191109000000     -2.92021841000000      1.32823640000000
  C   0.34110041000000     -2.09281124000000      2.45431411000000
  C   2.22937312000000     -2.27074887000000      0.98884183000000
  C   1.04709513000000     -2.89047422000000      0.30691860000000
  C   1.78344217000000     -1.73604343000000      2.26801433000000
  N   -1.06773048000000     -0.11817581000000     -0.53557961000000
  C   -2.45771060000000     -0.08190297000000      0.02944476000000
  C   -2.84652463000000      1.30706777000000      0.64575384000000
  H   -3.90182616000000      1.26627115000000      0.94492163000000
  H   -2.77223580000000      2.13874851000000     -0.08640050000000
  H   -2.24555320000000      1.53869914000000      1.54157023000000
  C   -3.49215471000000     -0.48826962000000     -1.05054159000000
  H   -2.45702799000000     -0.85446656000000      0.85125224000000
  H   -4.43926861000000     -0.61330233000000     -0.53907471000000
  H   -3.68222932000000      0.27848169000000     -1.83862750000000
  H   -3.22843851000000     -1.44578440000000     -1.53899698000000
  C   -0.84915122000000      0.24931872000000     -1.74798184000000
  C   0.48204694000000      0.18016685000000     -2.23427123000000
  H   -1.68210669000000      0.55279734000000     -2.37736404000000
  C   1.58419882000000     -0.07089405000000     -1.42592465000000
  C   2.71522352000000     -0.10461475000000     -2.35446949000000
  S   0.72796759000000      0.26491084000000     -3.94363290000000
  C   2.38658116000000     -0.01929714000000     -3.71339018000000
  H   1.86111250000000      1.26678615000000     -0.27619574000000
  H   3.78190017000000     -0.22295199000000     -2.16960639000000
  H   3.01618474000000     -0.04600134000000     -4.62720209000000
  H   -1.00830835000000     -3.46393365000000      1.20290623000000
  H   -0.25479246000000     -1.96467094000000      3.39237352000000
  H   2.43591966000000     -1.23332754000000      3.03162991000000
  O   2.01786985000000      2.11393571000000      0.27035961000000
  O   0.40126913000000      1.07255231000000      1.44167151000000
  C   1.10574630000000      2.08274187000000      1.19918185000000
  C   0.91808177000000      3.35661753000000      1.89725996000000
  H   0.86779105000000      4.21913896000000      1.21580236000000
  H   1.74010625000000      3.60327785000000      2.58366855000000
  H   0.01347020000000      3.44479310000000      2.51966924000000
  H   3.24147590000000     -2.11760365000000      0.54482187000000
  H   1.03278181000000     -3.41527902000000     -0.68645925000000
