39
Coordinates from ORCA-job 5_2_orca
  Ir  0.54333356000000     -0.78389955000000      0.52718776000000
  C   0.12841331000000     -2.92188504000000      0.93060797000000
  C   0.02390335000000     -2.27498497000000      2.19574610000000
  C   2.14862690000000     -1.92236127000000      1.36843709000000
  C   1.43692893000000     -2.75973464000000      0.44847498000000
  C   1.28282853000000     -1.67728426000000      2.45219380000000
  N   -1.12908421000000     -0.16085026000000     -0.53303950000000
  C   -2.50410073000000     -0.18921201000000      0.01950293000000
  C   -2.74683784000000      0.95958540000000      0.98106843000000
  H   -3.74990162000000      0.88969746000000      1.41343163000000
  H   -2.67631309000000      1.90474944000000      0.45399101000000
  H   -2.04888480000000      0.95760892000000      1.81000692000000
  C   -3.62369093000000     -0.26404510000000     -1.00664987000000
  H   -2.56299383000000     -1.10036853000000      0.59074792000000
  H   -4.57819877000000     -0.43850611000000     -0.49259164000000
  H   -3.73020039000000      0.66151826000000     -1.56312084000000
  H   -3.49028400000000     -1.09327323000000     -1.69461127000000
  C   -0.92296294000000      0.20862244000000     -1.74734224000000
  C   0.39460186000000      0.17314210000000     -2.31603124000000
  H   -1.73635264000000      0.53458173000000     -2.37060088000000
  C   1.47091066000000     -0.20490007000000     -1.53331460000000
  C   2.66962582000000     -0.29174868000000     -2.34154765000000
  S   0.81400244000000      0.40220150000000     -3.96092718000000
  C   2.44622716000000      0.04920683000000     -3.65285328000000
  H   2.23000321000000      1.30503105000000     -0.83083897000000
  H   3.66154374000000     -0.52405945000000     -1.98601617000000
  H   3.18769267000000      0.05885334000000     -4.43636167000000
  H   -0.57495374000000     -3.63897907000000      0.52822128000000
  H   -0.77628877000000     -2.34302803000000      2.89596957000000
  H   1.53254247000000     -1.18795379000000      3.37311322000000
  O   2.11977876000000      2.16195447000000      0.04838582000000
  O   0.46990265000000      1.22054499000000      1.25592003000000
  C   1.18783190000000      2.20557605000000      0.94745497000000
  C   1.03051100000000      3.51988562000000      1.68497586000000
  H   0.91329089000000      4.32960464000000      0.96963320000000
  H   1.93309399000000      3.73801745000000      2.25772213000000
  H   0.18774103000000      3.49480952000000      2.35690768000000
  H   3.19468116000000     -1.68928398000000      1.33272461000000
  H   1.84271307000000     -3.30965248000000     -0.37639147000000
