39
Coordinates from ORCA-job 5_4_orca
  Ir  0.56539161000000     -0.78011261000000      0.51067023000000
  C   0.11828964000000     -2.92316313000000      0.96004272000000
  C   0.03879361000000     -2.26308009000000      2.21080246000000
  C   2.15367206000000     -1.94144992000000      1.35124028000000
  C   1.40848093000000     -2.76837447000000      0.43856302000000
  C   1.31749890000000     -1.68420835000000      2.44152437000000
  N   -1.13031465000000     -0.15654308000000     -0.53584535000000
  C   -2.51031458000000     -0.18451111000000      0.02651817000000
  C   -2.75219560000000      0.98328638000000      0.95934932000000
  H   -3.75999586000000      0.91357754000000      1.38261955000000
  H   -2.68314495000000      1.92041857000000      0.42028414000000
  H   -2.06254073000000      0.99307248000000      1.79372275000000
  C   -3.61226161000000     -0.27723726000000     -1.01146711000000
  H   -2.55530764000000     -1.08536871000000      0.60702346000000
  H   -4.56813976000000     -0.44940143000000     -0.49511474000000
  H   -3.72861481000000      0.63732498000000     -1.58183294000000
  H   -3.47378511000000     -1.11529674000000     -1.68504568000000
  C   -0.91792837000000      0.21372737000000     -1.74944482000000
  C   0.40867879000000      0.17330296000000     -2.31138865000000
  H   -1.73357957000000      0.53419561000000     -2.36871241000000
  C   1.47431223000000     -0.20248975000000     -1.49842321000000
  C   2.67262245000000     -0.27382781000000     -2.34364179000000
  S   0.80703842000000      0.39621068000000     -3.97219551000000
  C   2.44199231000000      0.04313709000000     -3.66303004000000
  H   2.20385924000000      1.33213745000000     -0.77056046000000
  H   3.67091337000000     -0.50522539000000     -1.99941854000000
  H   3.17819487000000      0.05272922000000     -4.45479327000000
  H   -0.59805650000000     -3.62892889000000      0.57252035000000
  H   -0.74612644000000     -2.31956493000000      2.92984405000000
  H   1.58967030000000     -1.19338988000000      3.35225370000000
  O   2.12286886000000      2.12984875000000      0.02762833000000
  O   0.45367673000000      1.21155455000000      1.27811361000000
  C   1.19363503000000      2.17858978000000      0.95232838000000
  C   1.01997681000000      3.51614641000000      1.70258942000000
  H   0.90963798000000      4.32551686000000      0.98586395000000
  H   1.92099736000000      3.73064911000000      2.27985941000000
  H   0.17222868000000      3.49609489000000      2.37255723000000
  H   3.19730634000000     -1.71610484000000      1.28336506000000
  H   1.79188078000000     -3.31488598000000     -0.39791080000000
