39
Coordinates from ORCA-job 5_8_orca
  Ir  0.60202525000000     -0.77312180000000      0.48812080000000
  C   0.08698101000000     -2.92501367000000      1.04016007000000
  C   0.09308329000000     -2.22578985000000      2.26169192000000
  C   2.17065489000000     -2.00712490000000      1.28168857000000
  C   1.33441371000000     -2.79134724000000      0.40995666000000
  C   1.41118280000000     -1.69958306000000      2.41073237000000
  N   -1.12285960000000     -0.14638951000000     -0.54026641000000
  C   -2.50802994000000     -0.16414334000000      0.03160923000000
  C   -2.77314227000000      1.05160028000000      0.89687218000000
  H   -3.78930998000000      0.98571209000000      1.29251670000000
  H   -2.70236513000000      1.96691258000000      0.31721630000000
  H   -2.10090450000000      1.10142411000000      1.74445274000000
  C   -3.58793812000000     -0.31912348000000     -1.02021854000000
  H   -2.53482768000000     -1.04264870000000      0.65903247000000
  H   -4.53898497000000     -0.48194333000000     -0.50446834000000
  H   -3.72119383000000      0.56586034000000     -1.63643856000000
  H   -3.42358991000000     -1.18290978000000     -1.65637940000000
  C   -0.89957643000000      0.22407746000000     -1.75213728000000
  C   0.43437938000000      0.17202646000000     -2.29026401000000
  H   -1.72528792000000      0.53622613000000     -2.36816624000000
  C   1.49208862000000     -0.18381074000000     -1.45914987000000
  C   2.67900780000000     -0.23209937000000     -2.34340199000000
  S   0.78881798000000      0.37296407000000     -3.98175695000000
  C   2.42997115000000      0.02748944000000     -3.67966791000000
  H   2.13342246000000      1.37093501000000     -0.62964905000000
  H   3.69591731000000     -0.44744814000000     -2.03874786000000
  H   3.14820933000000      0.03312878000000     -4.50087950000000
  H   -0.67659709000000     -3.60046956000000      0.70176296000000
  H   -0.65100814000000     -2.24894175000000      3.02836285000000
  H   1.76207077000000     -1.20460582000000      3.29164978000000
  O   2.10391334000000      2.08340206000000      0.03889904000000
  O   0.43349459000000      1.19005431000000      1.32303870000000
  C   1.19121342000000      2.12704498000000      0.97997599000000
  C   1.00058438000000      3.48451580000000      1.74067590000000
  H   0.89956174000000      4.31005937000000      1.03320147000000
  H   1.88440528000000      3.70800333000000      2.34476832000000
  H   0.13243605000000      3.49280898000000      2.41085985000000
  H   3.20789496000000     -1.79655405000000      1.13494219000000
  H   1.63843152000000     -3.33391035000000     -0.45949453000000
