39
Coordinates from ORCA-job 5_9_orca
  Ir  0.66719949000000     -0.76345968000000      0.46936439000000
  C   -0.00232940000000     -2.92809559000000      1.24867355000000
  C   0.26846253000000     -2.12490802000000      2.39502659000000
  C   2.21912496000000     -2.19348593000000      1.07751124000000
  C   1.13532038000000     -2.85562568000000      0.33575235000000
  C   1.66220354000000     -1.73236709000000      2.31862632000000
  N   -1.08796528000000     -0.12341144000000     -0.54590406000000
  C   -2.47880554000000     -0.10617021000000      0.03226097000000
  C   -2.82899124000000      1.23393859000000      0.72404864000000
  H   -3.86970672000000      1.18379858000000      1.04770204000000
  H   -2.75293678000000      2.09232763000000      0.03276361000000
  H   -2.20322825000000      1.40505571000000      1.60632169000000
  C   -3.52379952000000     -0.43777054000000     -1.04139551000000
  H   -2.47994745000000     -0.91886167000000      0.79980674000000
  H   -4.46492549000000     -0.57283233000000     -0.52993709000000
  H   -3.69690966000000      0.36805968000000     -1.78300628000000
  H   -3.28579220000000     -1.36929106000000     -1.57653506000000
  C   -0.85737372000000      0.24434997000000     -1.75070640000000
  C   0.47697153000000      0.17371109000000     -2.24301157000000
  H   -1.69857425000000      0.54620069000000     -2.37324320000000
  C   1.55458089000000     -0.11589121000000     -1.41598222000000
  C   2.69651159000000     -0.13386730000000     -2.34666329000000
  S   0.74357409000000      0.30098239000000     -3.97020515000000
  C   2.39918451000000     -0.00977810000000     -3.70731976000000
  H   1.94338873000000      1.32504457000000     -0.36742308000000
  H   3.76074214000000     -0.28941867000000     -2.13730494000000
  H   3.05881214000000     -0.02210077000000     -4.60414273000000
  H   -0.90625174000000     -3.51413672000000      1.05289681000000
  H   -0.38660287000000     -2.05159500000000      3.29661205000000
  H   2.23856344000000     -1.22525779000000      3.12190805000000
  O   2.03673381000000      2.10156292000000      0.20868492000000
  O   0.41164997000000      1.12425795000000      1.41308198000000
  C   1.14298211000000      2.04718502000000      1.10406676000000
  C   0.94988317000000      3.38853199000000      1.84089544000000
  H   0.87529086000000      4.25461496000000      1.16253196000000
  H   1.78321572000000      3.63947516000000      2.51671044000000
  H   0.04138070000000      3.46727737000000      2.49535227000000
  H   3.23802972000000     -2.01941301000000      0.72331189000000
  H   1.21633775000000     -3.39231290000000     -0.62805343000000
