38
Coordinates from ORCA-job 8_0_orca
  Pd  0.39527819000000      0.13952308000000     -0.21336024000000
  O   1.97014595000000      1.37378929000000      0.63260363000000
  C   1.81430083000000      2.56534236000000      0.37226316000000
  O   0.70870737000000      2.98633199000000     -0.16352565000000
  C   2.87334073000000      3.58455143000000      0.64490850000000
  H   2.49443601000000      4.50551381000000      1.08790008000000
  H   3.34774332000000      3.86597226000000     -0.29793868000000
  H   3.64199422000000      3.16923869000000      1.29036746000000
  N   -1.30411491000000     -0.84269750000000     -0.92970664000000
  C   -1.03588852000000     -2.16225812000000     -1.53089224000000
  H   -0.31688404000000     -2.12420806000000     -2.34473418000000
  H   -1.90891827000000     -2.62940488000000     -2.02993433000000
  H   -0.62894080000000     -2.83785769000000     -0.79636509000000
  C   -1.89429059000000     -0.04515902000000     -2.01664235000000
  H   -2.01029467000000      0.98442171000000     -1.69520022000000
  H   -2.87303476000000     -0.43081693000000     -2.33080139000000
  H   -1.28279434000000     -0.04217633000000     -2.91231565000000
  C   -1.68429768000000     -1.17538644000000      1.46831048000000
  C   -2.04852663000000     -2.12626517000000      2.42145969000000
  C   -1.71493120000000     -1.98526632000000      3.76097399000000
  C   -0.99192625000000     -0.88211641000000      4.16908132000000
  C   -0.80934688000000      0.16206629000000      3.27266291000000
  C   -1.17745059000000      0.03232610000000      1.94002845000000
  H   -0.76463995000000     -0.75041787000000      5.21991022000000
  H   -0.53865029000000      1.10606919000000      3.72928817000000
  H   -2.75086093000000     -2.91999289000000      2.18673359000000
  H   -2.06813443000000     -2.70197062000000      4.49054125000000
  H   -1.26573162000000      3.80125808000000      0.98037373000000
  C   -2.33675019000000     -1.06606115000000      0.11632388000000
  H   -3.07381310000000     -0.25306058000000      0.12676754000000
  H   -2.97823178000000     -1.94615176000000     -0.02895901000000
  O   1.52081945000000      0.49035761000000     -1.90208379000000
  C   2.24964745000000     -0.42848906000000     -2.41337305000000
  O   2.18496291000000     -1.56113047000000     -1.96352901000000
  C   3.32836165000000     -0.03502992000000     -3.39719806000000
  H   3.70367211000000     -0.89396589000000     -3.95532798000000
  H   4.18091428000000      0.36380391000000     -2.84518590000000
  H   3.04412162000000      0.70931725000000     -4.14341093000000
