38
Coordinates from ORCA-job 8_11_orca
  Pd  0.32841309000000      0.43413139000000     -0.01598316000000
  O   1.82930075000000      1.38288037000000      0.59751979000000
  C   1.69689674000000      2.52956822000000      0.39673860000000
  O   0.42879072000000      2.98765369000000     -0.14441824000000
  C   2.75951483000000      3.54110573000000      0.63971208000000
  H   2.33759413000000      4.45610907000000      1.05888196000000
  H   3.24474913000000      3.87668607000000     -0.29126037000000
  H   3.59244089000000      3.23082047000000      1.31394234000000
  N   -1.38835917000000     -0.81473289000000     -0.99263813000000
  C   -1.11743867000000     -2.07190419000000     -1.79414546000000
  H   -0.40485211000000     -1.79805971000000     -2.61256286000000
  H   -2.15512408000000     -2.41376956000000     -2.06875734000000
  H   -0.67560775000000     -2.83445252000000     -1.12120796000000
  C   -2.01338485000000      0.17935032000000     -1.91397079000000
  H   -2.12554766000000      1.15884803000000     -1.40224793000000
  H   -3.02200132000000     -0.17350055000000     -2.22124717000000
  H   -1.31653671000000      0.30570982000000     -2.76124535000000
  C   -1.80321985000000     -0.99967735000000      1.53224141000000
  C   -1.84904341000000     -2.12587745000000      2.36388236000000
  C   -1.38177160000000     -2.03450827000000      3.68054916000000
  C   -1.16529176000000     -0.71515132000000      4.18482107000000
  C   -0.99864590000000      0.37016923000000      3.31892499000000
  C   -0.91394950000000      0.04386888000000      1.92513573000000
  H   -0.80628845000000     -0.62965628000000      5.20510177000000
  H   -0.80387627000000      1.38063561000000      3.70748768000000
  H   -2.10409947000000     -3.16559958000000      1.94037308000000
  H   -1.47082173000000     -2.89869221000000      4.35801664000000
  H   -1.36800871000000      3.33070547000000      1.10149887000000
  C   -2.30982403000000     -1.13600828000000      0.10121950000000
  H   -3.05881826000000     -0.35761270000000      0.10026613000000
  H   -2.72718695000000     -2.14907842000000     -0.12027539000000
  O   1.59101434000000      0.33506887000000     -1.83903267000000
  C   2.23184145000000     -0.65346599000000     -2.42066343000000
  O   1.88375981000000     -1.84026442000000     -2.55064264000000
  C   3.52481105000000     -0.24682319000000     -3.16436006000000
  H   3.90490898000000     -1.17223783000000     -3.61969018000000
  H   4.31648971000000      0.17790807000000     -2.54198053000000
  H   3.31775057000000      0.49326508000000     -3.94895428000000
