38
Coordinates from ORCA-job 8_16_orca
  Pd  0.25378373000000      0.27447683000000     -0.13283218000000
  O   1.81560189000000      1.38948415000000      0.66430091000000
  C   1.56206148000000      2.61922430000000      0.36330168000000
  O   0.52398563000000      2.94636588000000     -0.07157902000000
  C   2.72014888000000      3.57694468000000      0.63213798000000
  H   2.27557085000000      4.46253002000000      1.05867414000000
  H   3.18942778000000      3.86126625000000     -0.30173632000000
  H   3.50884269000000      3.22046579000000      1.29022186000000
  N   -1.34698285000000     -0.73222103000000     -0.97476598000000
  C   -1.16061646000000     -1.94049580000000     -1.82921982000000
  H   -0.53598518000000     -1.73688726000000     -2.67859519000000
  H   -2.14278953000000     -2.32931349000000     -2.16271416000000
  H   -0.68342078000000     -2.77287361000000     -1.31669455000000
  C   -2.03086832000000      0.26084664000000     -1.83340023000000
  H   -2.16896572000000      1.18286467000000     -1.29634591000000
  H   -3.02246172000000     -0.06526866000000     -2.18962566000000
  H   -1.40880163000000      0.45607631000000     -2.69866153000000
  C   -1.62762739000000     -1.07131440000000      1.45627698000000
  C   -1.68725147000000     -2.15778092000000      2.33674302000000
  C   -1.35552120000000     -1.99676017000000      3.67308758000000
  C   -1.09355900000000     -0.71008602000000      4.16326148000000
  C   -1.02177701000000      0.39871639000000      3.29460268000000
  C   -1.14937050000000      0.17101027000000      1.91196389000000
  H   -0.88809239000000     -0.57288876000000      5.22474295000000
  H   -0.96045194000000      1.40156199000000      3.71535330000000
  H   -1.82819176000000     -3.14300982000000      1.89334549000000
  H   -1.18753238000000     -2.89937311000000      4.27655235000000
  H   -1.42620210000000      3.08311005000000      1.16355487000000
  C   -2.27316390000000     -1.13814712000000      0.12013633000000
  H   -3.14205366000000     -0.45840197000000      0.06721383000000
  H   -2.63561010000000     -2.15597347000000     -0.07676366000000
  O   1.71225895000000      0.22447320000000     -1.69814993000000
  C   2.19010416000000     -0.70757926000000     -2.48524603000000
  O   1.68059065000000     -1.78752480000000     -2.73346399000000
  C   3.58275896000000     -0.34714950000000     -3.07758309000000
  H   3.95408459000000     -1.27953407000000     -3.48212090000000
  H   4.33352148000000      0.07884474000000     -2.39236561000000
  H   3.48523698000000      0.36784175000000     -3.88200816000000
