38
Coordinates from ORCA-job 8_24_orca
  Pd  0.29732406000000      0.22511422000000     -0.15185724000000
  O   1.69391007000000      1.38868356000000      0.69992514000000
  C   1.47768783000000      2.61790276000000      0.43840520000000
  O   0.38130267000000      3.05747534000000      0.02083694000000
  C   2.62558193000000      3.57542427000000      0.64325818000000
  H   2.25109024000000      4.50597363000000      1.05261204000000
  H   3.07359631000000      3.83034211000000     -0.31568227000000
  H   3.40760071000000      3.18233554000000      1.28343988000000
  N   -1.36987352000000     -0.72010005000000     -1.03330452000000
  C   -1.18825647000000     -1.88267889000000     -1.91757918000000
  H   -0.58494611000000     -1.61312016000000     -2.77282026000000
  H   -2.18027146000000     -2.23869241000000     -2.23899828000000
  H   -0.67327849000000     -2.66825976000000     -1.37644662000000
  C   -2.04312620000000      0.34350089000000     -1.80249765000000
  H   -2.19255922000000      1.22808413000000     -1.18960420000000
  H   -3.01944552000000     -0.00775910000000     -2.15358465000000
  H   -1.43537668000000      0.61453672000000     -2.65884899000000
  C   -1.61178936000000     -0.97374297000000      1.41293308000000
  C   -1.46795540000000     -2.09344819000000      2.24996981000000
  C   -1.14302841000000     -1.95586906000000      3.58372749000000
  C   -1.04131959000000     -0.67345429000000      4.09768917000000
  C   -1.05623559000000      0.42821172000000      3.24687870000000
  C   -1.27412295000000      0.31662402000000      1.88046663000000
  H   -0.94461909000000     -0.51720352000000      5.16721330000000
  H   -0.94083646000000      1.39486043000000      3.68000592000000
  H   -1.67648013000000     -3.08844729000000      1.88819378000000
  H   -1.08124892000000     -2.80303299000000      4.24402533000000
  H   -1.17460343000000      2.28670027000000      1.13681915000000
  C   -2.25724259000000     -1.14999036000000      0.09101133000000
  H   -3.16528313000000     -0.54770792000000      0.11711106000000
  H   -2.58393534000000     -2.18327766000000     -0.05795139000000
  O   1.75702421000000      0.11722159000000     -1.55385847000000
  C   2.18343049000000     -0.74071582000000     -2.43027423000000
  O   1.60874065000000     -1.71875986000000     -2.87079054000000
  C   3.58883411000000     -0.44807997000000     -2.98987796000000
  H   4.02195213000000     -1.36245947000000     -3.38522705000000
  H   4.23239617000000     -0.03417456000000     -2.23044424000000
  H   3.52788504000000      0.26294618000000     -3.80634202000000
