38
Coordinates from ORCA-job 8_30_orca
  Pd  0.34141939000000      0.25373464000000     -0.17821985000000
  O   1.65137129000000      1.41603062000000      0.70842362000000
  C   1.39214646000000      2.68068103000000      0.53272215000000
  O   0.28569238000000      3.12317216000000      0.29443517000000
  C   2.60810148000000      3.58901924000000      0.65383089000000
  H   2.33101626000000      4.55460890000000      1.07996774000000
  H   3.04321943000000      3.76346131000000     -0.33740410000000
  H   3.39129770000000      3.13929550000000      1.25882678000000
  N   -1.35910039000000     -0.72926833000000     -1.03502762000000
  C   -1.11590259000000     -1.95003059000000     -1.82521575000000
  H   -0.45579764000000     -1.73515500000000     -2.65404390000000
  H   -2.06573607000000     -2.34563393000000     -2.21828955000000
  H   -0.63827440000000     -2.71687493000000     -1.21385700000000
  C   -2.01103196000000      0.27682494000000     -1.88508356000000
  H   -2.17414360000000      1.18907863000000     -1.30770802000000
  H   -2.98190520000000     -0.09313748000000     -2.24779068000000
  H   -1.36713305000000      0.48417461000000     -2.73479495000000
  C   -1.60507759000000     -0.88396176000000      1.38804726000000
  C   -1.65031021000000     -1.99301976000000      2.24909954000000
  C   -1.34480745000000     -1.87574517000000      3.59080814000000
  C   -0.99312095000000     -0.60518652000000      4.03191913000000
  C   -0.82878459000000      0.48516604000000      3.15772855000000
  C   -1.06800500000000      0.37091089000000      1.78076614000000
  H   -0.84065051000000     -0.48512515000000      5.09819938000000
  H   -0.57190631000000      1.42810507000000      3.61848558000000
  H   -1.97813090000000     -2.96109346000000      1.87530870000000
  H   -1.33423500000000     -2.73747267000000      4.25867336000000
  H   -0.86227071000000      1.19803371000000      1.12516167000000
  C   -2.28114588000000     -1.07645988000000      0.07012212000000
  H   -3.17370925000000     -0.44229863000000      0.04015611000000
  H   -2.66278087000000     -2.09993709000000     -0.06705024000000
  O   1.67142598000000      0.24928362000000     -1.62213399000000
  C   2.17265496000000     -0.69055925000000     -2.33476834000000
  O   1.66785996000000     -1.80746286000000     -2.48906325000000
  C   3.46983014000000     -0.31629837000000     -3.03098339000000
  H   3.86290093000000     -1.20989556000000     -3.47518859000000
  H   4.20257104000000      0.10333733000000     -2.35231207000000
  H   3.29423274000000      0.39905887000000     -3.82046042000000
