38
Coordinates from ORCA-job 8_3_orca
  Pd  0.41510774000000      0.21772057000000     -0.15843475000000
  O   1.95444620000000      1.30502412000000      0.62405388000000
  C   1.71224527000000      2.61946259000000      0.34648145000000
  O   0.71642308000000      2.96905432000000     -0.14208521000000
  C   2.88520906000000      3.58138926000000      0.64901026000000
  H   2.47505613000000      4.49964096000000      1.08435371000000
  H   3.33940987000000      3.86962289000000     -0.29863098000000
  H   3.64414309000000      3.17854780000000      1.29580706000000
  N   -1.33786936000000     -0.87597982000000     -0.98756342000000
  C   -1.03146456000000     -2.17828206000000     -1.57849479000000
  H   -0.32062951000000     -2.08303984000000     -2.36361634000000
  H   -1.93443237000000     -2.59328462000000     -2.01431830000000
  H   -0.63503673000000     -2.84142957000000     -0.81633498000000
  C   -1.91551049000000     -0.00617962000000     -2.01698375000000
  H   -2.02222413000000      1.00594458000000     -1.66796389000000
  H   -2.88148417000000     -0.41052180000000     -2.30987514000000
  H   -1.27581452000000     -0.01317231000000     -2.89509932000000
  C   -1.74222740000000     -1.11781592000000      1.48737228000000
  C   -2.03032304000000     -2.14029155000000      2.41967061000000
  C   -1.67340908000000     -2.00262429000000      3.74414150000000
  C   -1.02508941000000     -0.86310231000000      4.17153990000000
  C   -0.83552199000000      0.20205977000000      3.27931875000000
  C   -1.10932079000000      0.01443782000000      1.94185310000000
  H   -0.76051028000000     -0.73986099000000      5.21796048000000
  H   -0.55807110000000      1.12902760000000      3.71941688000000
  H   -2.69001823000000     -2.94575939000000      2.16119505000000
  H   -2.01749929000000     -2.71966354000000      4.47858232000000
  H   -1.26359987000000      3.75468247000000      0.98699673000000
  C   -2.33766544000000     -1.08243556000000      0.14006605000000
  H   -3.05832010000000     -0.25972778000000      0.13115973000000
  H   -2.94605738000000     -1.96651039000000     -0.05206330000000
  O   1.50046252000000      0.51477824000000     -1.92280161000000
  C   2.25513228000000     -0.46033520000000     -2.35881315000000
  O   2.17249922000000     -1.62453453000000     -2.03895489000000
  C   3.35124611000000     -0.05260151000000     -3.39734741000000
  H   3.72738337000000     -0.92201802000000     -3.92425634000000
  H   4.18857934000000      0.34589492000000     -2.81613299000000
  H   3.06572090000000      0.69283747000000     -4.12300655000000
