38
Coordinates from ORCA-job 8_4_orca
  Pd  0.43740444000000      0.31761645000000     -0.09291678000000
  O   1.91110134000000      1.25433979000000      0.60479108000000
  C   1.73232780000000      2.61114694000000      0.37843395000000
  O   0.60019825000000      2.99188178000000     -0.17163501000000
  C   2.86824113000000      3.57511477000000      0.64873128000000
  H   2.44819585000000      4.49080160000000      1.07897985000000
  H   3.32590237000000      3.87474048000000     -0.30051990000000
  H   3.64630642000000      3.18882926000000      1.30643214000000
  N   -1.37187773000000     -0.89415586000000     -1.02221191000000
  C   -1.03972039000000     -2.18499098000000     -1.63110098000000
  H   -0.32194170000000     -2.01971792000000     -2.41177100000000
  H   -1.98282762000000     -2.54894804000000     -2.00708019000000
  H   -0.64472206000000     -2.84382631000000     -0.86106345000000
  C   -1.94106921000000      0.03513045000000     -2.01265555000000
  H   -2.04242764000000      1.04542573000000     -1.61731746000000
  H   -2.90549407000000     -0.37122562000000     -2.28478029000000
  H   -1.27232343000000      0.04187367000000     -2.86848210000000
  C   -1.80491681000000     -1.06574104000000      1.52229535000000
  C   -1.99498730000000     -2.14061797000000      2.40560179000000
  C   -1.60689849000000     -2.02249517000000      3.72636582000000
  C   -1.06837215000000     -0.82635176000000      4.17354886000000
  C   -0.87696979000000      0.24202427000000      3.29590929000000
  C   -1.02386000000000      0.00349621000000      1.93998368000000
  H   -0.75992317000000     -0.72137884000000      5.21250821000000
  H   -0.59378076000000      1.17958614000000      3.71139834000000
  H   -2.58738364000000     -2.99392673000000      2.11708545000000
  H   -1.92542469000000     -2.75227234000000      4.45782101000000
  H   -1.27384213000000      3.67681700000000      1.00403542000000
  C   -2.33759160000000     -1.09839464000000      0.13686391000000
  H   -3.04173030000000     -0.27461099000000      0.13340991000000
  H   -2.89924380000000     -2.00381967000000     -0.07788199000000
  O   1.49309914000000      0.50988704000000     -1.93365931000000
  C   2.25749898000000     -0.51326651000000     -2.31957946000000
  O   2.13723661000000     -1.68295218000000     -2.15419647000000
  C   3.38588809000000     -0.08643158000000     -3.36040180000000
  H   3.76661081000000     -0.97313815000000     -3.87266089000000
  H   4.20547812000000      0.31446895000000     -2.76933359000000
  H   3.10420949000000      0.66514290000000     -4.09370043000000
