38
Coordinates from ORCA-job 8_5_orca
  Pd  0.42152568000000      0.24647486000000     -0.13957589000000
  O   1.94196971000000      1.29043501000000      0.61850923000000
  C   1.71802588000000      2.61706899000000      0.35567874000000
  O   0.68296863000000      2.97562504000000     -0.15059090000000
  C   2.88032497000000      3.57958319000000      0.64892996000000
  H   2.46732459000000      4.49709661000000      1.08280688000000
  H   3.33552183000000      3.87109595000000     -0.29917469000000
  H   3.64476579000000      3.18150724000000      1.29886541000000
  N   -1.34765841000000     -0.88121166000000     -0.99753673000000
  C   -1.03384094000000     -2.18021317000000     -1.59363709000000
  H   -0.32100721000000     -2.06481310000000     -2.37747730000000
  H   -1.94836258000000     -2.58052267000000     -2.01223486000000
  H   -0.63782458000000     -2.84211946000000     -0.82920974000000
  C   -1.92286738000000      0.00571117000000     -2.01573791000000
  H   -2.02803956000000      1.01730894000000     -1.65338569000000
  H   -2.88839524000000     -0.39921068000000     -2.30265178000000
  H   -1.27480963000000      0.00267226000000     -2.88743775000000
  C   -1.76027208000000     -1.10282655000000      1.49742463000000
  C   -2.02015191000000     -2.14038551000000      2.41562101000000
  C   -1.65426450000000     -2.00834397000000      3.73902490000000
  C   -1.03754802000000     -0.85252394000000      4.17211816000000
  C   -0.84745243000000      0.21356326000000      3.28409421000000
  C   -1.08472154000000      0.01128836000000      1.94131500000000
  H   -0.76034128000000     -0.73454104000000      5.21639108000000
  H   -0.56834986000000      1.14358050000000      3.71710880000000
  H   -2.66047563000000     -2.95962400000000      2.14849843000000
  H   -1.99099630000000     -2.72904974000000      4.47260633000000
  H   -1.26654803000000      3.73226948000000      0.99190119000000
  C   -2.33764419000000     -1.08702927000000      0.13914433000000
  H   -3.05354484000000     -0.26401180000000      0.13180743000000
  H   -2.93258244000000     -1.97724959000000     -0.05949502000000
  O   1.49834303000000      0.51337034000000     -1.92592692000000
  C   2.25581351000000     -0.47557108000000     -2.34752002000000
  O   2.16234914000000     -1.64134962000000     -2.07212632000000
  C   3.36121755000000     -0.06233925000000     -3.38671289000000
  H   3.73867469000000     -0.93673257000000     -3.90940497000000
  H   4.19344353000000      0.33684919000000     -2.80266213000000
  H   3.07679955000000      0.68486579000000     -4.11457100000000
