38
Coordinates from ORCA-job 8_6_orca
  Pd  0.41665115000000      0.22463551000000     -0.15389950000000
  O   1.95144581000000      1.30151567000000      0.62272048000000
  C   1.71363541000000      2.61888697000000      0.34869325000000
  O   0.70837783000000      2.97063447000000     -0.14413069000000
  C   2.88403452000000      3.58095493000000      0.64899095000000
  H   2.47319682000000      4.49902908000000      1.08398172000000
  H   3.33847486000000      3.86997713000000     -0.29876174000000
  H   3.64429283000000      3.17925950000000      1.29654255000000
  N   -1.34022347000000     -0.87723799000000     -0.98996184000000
  C   -1.03203604000000     -2.17874646000000     -1.58213627000000
  H   -0.32072034000000     -2.07865660000000     -2.36694967000000
  H   -1.93778236000000     -2.59021558000000     -2.01381726000000
  H   -0.63570716000000     -2.84159548000000     -0.81943115000000
  C   -1.91727970000000     -0.00332008000000     -2.01668414000000
  H   -2.02362264000000      1.00867752000000     -1.66445807000000
  H   -2.88314617000000     -0.40780166000000     -2.30813804000000
  H   -1.27557286000000     -0.00936195000000     -2.89325684000000
  C   -1.74656685000000     -1.11421122000000      1.48978971000000
  C   -2.02787705000000     -2.14031415000000      2.41869675000000
  C   -1.66880512000000     -2.00399978000000      3.74291104000000
  C   -1.02808550000000     -0.86055838000000      4.17167896000000
  C   -0.83839106000000      0.20482617000000      3.28046717000000
  C   -1.10340507000000      0.01368043000000      1.94172370000000
  H   -0.76046964000000     -0.73858163000000      5.21758306000000
  H   -0.56054298000000      1.13252734000000      3.71886182000000
  H   -2.68291371000000     -2.94909361000000      2.15814172000000
  H   -2.01112576000000     -2.72192077000000      4.47714519000000
  H   -1.26430886000000      3.74929251000000      0.98817617000000
  C   -2.33766033000000     -1.08354027000000      0.13984439000000
  H   -3.05717173000000     -0.26075802000000      0.13131549000000
  H   -2.94281688000000     -1.96909299000000     -0.05385050000000
  O   1.49995282000000      0.51443966000000     -1.92355319000000
  C   2.25529610000000     -0.46399918000000     -2.35609733000000
  O   2.17005829000000     -1.62857828000000     -2.04693208000000
  C   3.35364408000000     -0.05494328000000     -3.39478998000000
  H   3.73009875000000     -0.92555663000000     -3.92068483000000
  H   4.18974910000000      0.34371957000000     -2.81289347000000
  H   3.06838514000000      0.69092041000000     -4.12097794000000
