21
autodE path point 0. E = none charge = 0 mult = 1 
C    -1.94850   0.11390  -0.11553
C    -1.51314  -0.55355  -1.25176
C    -0.65360  -1.63698  -1.13265
C    -0.22371  -2.04826   0.12095
C    -1.51877  -0.29869   1.13870
C    -0.65405  -1.37730   1.25696
H    -2.62392   0.95412  -0.20975
H    -1.84157  -0.22938  -2.23030
H    -0.32031  -2.16033  -2.01958
H    -0.30961  -1.68955   2.23377
H     0.45051  -2.88926   0.21625
Pd    1.43399   1.27524   0.00042
O     2.09476   0.53096  -1.76783
O     2.59801  -0.39701   0.11164
O     0.31132   2.97233  -0.11995
C     0.21519   2.97032   1.13364
O     0.79029   2.05104   1.76995
H    -1.85791   0.21851   2.02659
C     2.67984  -0.39057  -1.14227
H     3.24668  -1.16254  -1.67564
H    -0.35550   3.74699   1.65639
21
autodE path point 1. E = none charge = 0 mult = 1 
C    -1.85783   0.15201  -0.17292
C    -1.62803  -0.63916  -1.28455
C    -0.89905  -1.80762  -1.16257
C    -0.35570  -2.15713   0.05981
C    -1.36344  -0.24405   1.05450
C    -0.55926  -1.35933   1.17130
H    -2.46870   1.03529  -0.30802
H    -2.06433  -0.38331  -2.23951
H    -0.78254  -2.46176  -2.01360
H    -0.09951  -1.65372   2.10603
H     0.21034  -3.07337   0.14576
Pd    1.40880   1.21409   0.01519
O     2.39451   0.71964  -1.69690
O     2.61625  -0.43509   0.10903
O     0.31834   2.92446  -0.06209
C     0.16078   2.99186   1.17588
O     0.71238   2.11223   1.89708
H    -1.72874   0.53308   2.29934
C     2.87887  -0.27774  -1.10839
H     3.57064  -0.96190  -1.61408
H    -0.46377   3.77151   1.62874
21
autodE path point 2. E = none charge = 0 mult = 1 
C    -1.74742   0.17737  -0.26873
C    -1.75965  -0.73178  -1.31140
C    -1.17926  -1.97482  -1.14193
C    -0.49207  -2.26497   0.02160
C    -1.17400  -0.18278   0.93399
C    -0.46011  -1.35495   1.06093
H    -2.29218   1.09938  -0.45205
H    -2.31317  -0.52330  -2.22046
H    -1.29041  -2.72796  -1.90918
H     0.10404  -1.63567   1.94607
H    -0.03740  -3.24330   0.13914
Pd    1.40424   1.17270  -0.00562
O     2.71053   0.93591  -1.57719
O     2.63116  -0.47252   0.04490
O     0.34184   2.89649   0.00242
C     0.11728   3.00684   1.21936
O     0.63013   2.15751   2.01401
H    -1.57898   0.80592   2.52807
C     3.07795  -0.15630  -1.08592
H     3.85806  -0.76949  -1.54602
H    -0.55057   3.78573   1.60803
21
autodE path point 3. E = none charge = 0 mult = 1 
C    -1.62222   0.19301  -0.41773
C    -1.92523  -0.82274  -1.31356
C    -1.48166  -2.11078  -1.05974
C    -0.64394  -2.37310   0.01314
C    -0.92263  -0.13266   0.73042
C    -0.34801  -1.37157   0.92335
H    -2.06928   1.14845  -0.66585
H    -2.58421  -0.64005  -2.14626
H    -1.80970  -2.91999  -1.69943
H     0.30556  -1.64218   1.74474
H    -0.30227  -3.37912   0.18923
Pd    1.42620   1.15103  -0.05754
O     3.02959   1.15324  -1.40075
O     2.63946  -0.51131  -0.09447
O     0.36766   2.87027   0.07791
C     0.05838   2.99585   1.26679
O     0.50564   2.16336   2.12786
H    -1.39552   1.05830   2.70612
C     3.28238  -0.02307  -1.05043
H     4.13658  -0.57826  -1.46657
H    -0.64677   3.77131   1.59276
21
autodE path point 4. E = none charge = 0 mult = 1 
C    -1.51174   0.18222  -0.57299
C    -2.07578  -0.87761  -1.26948
C    -1.72683  -2.17732  -0.94805
C    -0.78803  -2.43698   0.03542
C    -0.66768  -0.12101   0.47715
C    -0.25542  -1.39885   0.78045
H    -1.85160   1.15965  -0.89677
H    -2.81275  -0.69505  -2.03756
H    -2.22509  -3.00324  -1.45419
H     0.47057  -1.66693   1.54067
H    -0.52333  -3.45724   0.26989
Pd    1.45437   1.12572  -0.11561
O     3.26819   1.31333  -1.20189
O     2.65935  -0.53920  -0.28295
O     0.37407   2.83162   0.14233
C    -0.01198   2.95492   1.30095
O     0.36687   2.13185   2.21213
H    -1.22949   1.25723   2.82688
C     3.46652   0.10262  -1.00252
H     4.35906  -0.41585  -1.37907
H    -0.73923   3.73008   1.57521
21
autodE path point 5. E = none charge = 0 mult = 1 
C    -1.36806   0.13219  -0.81956
C    -2.25427  -0.87632  -1.16180
C    -2.05250  -2.16952  -0.71224
C    -0.96469  -2.46381   0.09214
C    -0.35400  -0.18679   0.05572
C    -0.10904  -1.46124   0.50860
H    -1.55886   1.10146  -1.27067
H    -3.09879  -0.65596  -1.80478
H    -2.75396  -2.94552  -0.97890
H     0.70829  -1.75151   1.16230
H    -0.80705  -3.47973   0.43752
Pd    1.51551   1.09197  -0.20995
O     3.52366   1.50025  -0.81776
O     2.74787  -0.51411  -0.61286
O     0.33160   2.72891   0.16811
C    -0.16045   2.81234   1.28237
O     0.23999   2.01027   2.21274
H    -1.05551   1.42730   2.98857
C     3.69935   0.27057  -0.86950
H     4.66260  -0.16532  -1.16926
H    -0.89168   3.59455   1.51923
21
autodE path point 6. E = none charge = 0 mult = 1 
C    -1.26531   0.06894  -1.02241
C    -2.32893  -0.82434  -1.08991
C    -2.23022  -2.07741  -0.50600
C    -1.05615  -2.43734   0.14007
C    -0.08554  -0.28836  -0.37440
C     0.01203  -1.55252   0.20243
H    -1.36540   1.03449  -1.50456
H    -3.23433  -0.53847  -1.61093
H    -3.05762  -2.77273  -0.56277
H     0.92734  -1.86608   0.68936
H    -0.96388  -3.41844   0.58910
Pd    1.44840   0.90054  -0.31164
O     3.59504   1.58069  -0.46482
O     2.87387  -0.46053  -0.78216
O     0.18889   2.46944   0.21014
C    -0.33840   2.58755   1.29011
O    -0.10649   1.76680   2.27893
H    -0.62276   1.98477   3.06301
C     3.81244   0.39076  -0.74437
H     4.83085   0.03775  -0.96753
H    -1.03382   3.41448   1.47837
