21
Generated by autodE on: 2023-07-10. 
C    -1.94850   0.11390  -0.11553
C    -1.51314  -0.55355  -1.25176
C    -0.65360  -1.63698  -1.13265
C    -0.22371  -2.04826   0.12095
C    -1.51877  -0.29869   1.13870
C    -0.65405  -1.37730   1.25696
H    -2.62392   0.95412  -0.20975
H    -1.84157  -0.22938  -2.23030
H    -0.32031  -2.16033  -2.01958
H    -0.30961  -1.68955   2.23377
H     0.45051  -2.88926   0.21625
Pd    1.43399   1.27524   0.00042
O     2.09476   0.53096  -1.76783
O     2.59801  -0.39701   0.11164
O     0.31132   2.97233  -0.11995
C     0.21519   2.97032   1.13364
O     0.79029   2.05104   1.76995
H    -1.85791   0.21851   2.02659
C     2.67984  -0.39057  -1.14227
H     3.24668  -1.16254  -1.67564
H    -0.35550   3.74699   1.65639
