21
Generated by autodE on: 2023-07-10. 
C    -1.26531   0.06894  -1.02241
C    -2.32893  -0.82434  -1.08991
C    -2.23022  -2.07741  -0.50600
C    -1.05615  -2.43734   0.14007
C    -0.08554  -0.28836  -0.37440
C     0.01203  -1.55252   0.20243
H    -1.36540   1.03449  -1.50456
H    -3.23433  -0.53847  -1.61093
H    -3.05762  -2.77273  -0.56277
H     0.92734  -1.86608   0.68936
H    -0.96388  -3.41844   0.58910
Pd    1.44840   0.90054  -0.31164
O     3.59504   1.58069  -0.46482
O     2.87387  -0.46053  -0.78216
O     0.18889   2.46944   0.21014
C    -0.33840   2.58755   1.29011
O    -0.10649   1.76680   2.27893
H    -0.62276   1.98477   3.06301
C     3.81244   0.39076  -0.74437
H     4.83085   0.03775  -0.96753
H    -1.03382   3.41448   1.47837
