38
Coordinates from ORCA-job 2_10_orca
  Pd  0.71894531000000      0.57802590000000     -0.52479584000000
  O   2.22473445000000      1.53417249000000      0.27748539000000
  C   1.63647292000000      2.67250171000000      0.26104674000000
  O   0.43476776000000      2.70651529000000     -0.07102425000000
  C   2.46389503000000      3.91633149000000      0.55829036000000
  H   1.85234917000000      4.68140063000000      1.03448507000000
  H   2.82516950000000      4.34391373000000     -0.38430757000000
  H   3.34034284000000      3.71449511000000      1.17943310000000
  N   -1.22968829000000     -0.30562733000000     -1.19199413000000
  C   -1.24803258000000     -1.01236058000000     -2.49606611000000
  H   -0.92414515000000     -0.30825940000000     -3.25839274000000
  H   -2.28634823000000     -1.31418579000000     -2.69763890000000
  H   -0.59247399000000     -1.88257004000000     -2.49480465000000
  C   -2.14815573000000      0.83816211000000     -1.25784093000000
  H   -2.15732340000000      1.40531630000000     -0.32541503000000
  H   -3.16098679000000      0.46913992000000     -1.46791515000000
  H   -1.81778867000000      1.45132631000000     -2.09537405000000
  C   -1.52874817000000     -0.84910719000000      1.33174793000000
  C   -0.51606296000000     -1.63458190000000      1.97907586000000
  C   -0.28994835000000     -1.53708075000000      3.35620968000000
  C   -1.28153984000000     -0.93577697000000      4.09185568000000
  C   -2.29704131000000     -0.16342643000000      3.48038572000000
  C   -2.42852395000000      0.01115673000000      2.12889674000000
  H   -1.16046672000000     -0.80238800000000      5.16471952000000
  H   -3.17109402000000      0.08547625000000      4.05208369000000
  H   0.16323282000000     -2.30960507000000      1.42300803000000
  H   0.49116764000000     -2.11319635000000      3.85953777000000
  H   -2.77813219000000      0.98354722000000      1.92636760000000
  C   -1.70558764000000     -1.25007354000000     -0.13850155000000
  H   -2.77495542000000     -1.43535538000000     -0.29028277000000
  H   -1.22810996000000     -2.22706076000000     -0.32972728000000
  O   1.75923524000000     -1.01046671000000     -1.10666214000000
  C   2.25993330000000     -0.80478171000000     -2.29909840000000
  O   1.85015947000000      0.01800181000000     -3.09937448000000
  C   3.45115729000000     -1.71865642000000     -2.58899046000000
  H   3.22178948000000     -2.77239283000000     -2.41571909000000
  H   4.29925431000000     -1.45626234000000     -1.95334704000000
  H   3.74075067000000     -1.58217006000000     -3.63025100000000
