38
Coordinates from ORCA-job 2_12_orca
  Pd  0.70823962000000      0.55383944000000     -0.52587122000000
  O   2.20703782000000      1.52351541000000      0.27831819000000
  C   1.62797634000000      2.65340526000000      0.26747356000000
  O   0.41487139000000      2.68716171000000     -0.06262245000000
  C   2.46952022000000      3.88183646000000      0.56124342000000
  H   1.88241986000000      4.66793989000000      1.03365673000000
  H   2.84546868000000      4.30496848000000     -0.37856609000000
  H   3.34778436000000      3.67103760000000      1.18334407000000
  N   -1.23969882000000     -0.33300622000000     -1.18762891000000
  C   -1.24819166000000     -1.07892192000000     -2.48019431000000
  H   -0.91096813000000     -0.39584714000000     -3.26062602000000
  H   -2.28727350000000     -1.38686656000000     -2.68409787000000
  H   -0.58447937000000     -1.95434369000000     -2.44604377000000
  C   -2.16364434000000      0.81033645000000     -1.29750377000000
  H   -2.19382565000000      1.39270134000000     -0.36513871000000
  H   -3.17445805000000      0.43402571000000     -1.51296006000000
  H   -1.82099252000000      1.39726224000000     -2.15169567000000
  C   -1.56288498000000     -0.81510118000000      1.35709143000000
  C   -0.58447526000000     -1.64539718000000      1.98238707000000
  C   -0.33342919000000     -1.56855023000000      3.36010367000000
  C   -1.32038520000000     -0.93815805000000      4.10356940000000
  C   -2.27369345000000     -0.08700402000000      3.51128811000000
  C   -2.33494158000000      0.06243307000000      2.15476712000000
  H   -1.18858312000000     -0.81765476000000      5.17081535000000
  H   -3.15101543000000      0.24051470000000      4.05846699000000
  H   0.06624385000000     -2.35298197000000      1.41842952000000
  H   0.44511566000000     -2.16104338000000      3.86310006000000
  H   -2.46584506000000      1.05875450000000      1.95156365000000
  C   -1.74499687000000     -1.23369823000000     -0.11901295000000
  H   -2.81397062000000     -1.41155558000000     -0.28675438000000
  H   -1.28170295000000     -2.22436571000000     -0.28354490000000
  O   1.77884648000000     -1.00517358000000     -1.12648801000000
  C   2.25573066000000     -0.77318435000000     -2.32069023000000
  O   1.80717179000000      0.03808520000000     -3.10772851000000
  C   3.47683317000000     -1.64621563000000     -2.61211187000000
  H   3.27967677000000     -2.71378283000000     -2.45216661000000
  H   4.31855839000000     -1.37419440000000     -1.96319785000000
  H   3.76064945000000     -1.48412341000000     -3.64855676000000
