38
Coordinates from ORCA-job 2_13_orca
  Pd  0.67237242000000      0.51850728000000     -0.53716165000000
  O   2.19603794000000      1.51640871000000      0.27756581000000
  C   1.62802203000000      2.63313927000000      0.27367562000000
  O   0.39963910000000      2.66200883000000     -0.04617653000000
  C   2.47106544000000      3.84741815000000      0.56380447000000
  H   1.91384790000000      4.65144453000000      1.03336440000000
  H   2.86511022000000      4.25744125000000     -0.37142457000000
  H   3.34816084000000      3.61835475000000      1.18446218000000
  N   -1.24368425000000     -0.36255188000000     -1.17263132000000
  C   -1.24949558000000     -1.14272726000000     -2.45134164000000
  H   -0.89629736000000     -0.49825930000000     -3.26189568000000
  H   -2.28055790000000     -1.46919130000000     -2.67086597000000
  H   -0.58225917000000     -2.02413734000000     -2.39039708000000
  C   -2.17663908000000      0.77374482000000     -1.34738759000000
  H   -2.23101049000000      1.37638958000000     -0.42125172000000
  H   -3.18723585000000      0.39888178000000     -1.56202185000000
  H   -1.82916249000000      1.34528430000000     -2.20622691000000
  C   -1.55773774000000     -0.82609082000000      1.37282509000000
  C   -0.65142968000000     -1.66084015000000      1.99059438000000
  C   -0.40735862000000     -1.61359226000000      3.36264493000000
  C   -1.35405286000000     -0.91221830000000      4.12845196000000
  C   -2.24826218000000     -0.05084687000000      3.56700116000000
  C   -2.20409912000000      0.09153625000000      2.17402369000000
  H   -1.22452164000000     -0.84639062000000      5.18467094000000
  H   -3.10989887000000      0.42839045000000      4.07407740000000
  H   -0.05663937000000     -2.38403562000000      1.41641573000000
  H   0.38565142000000     -2.20322371000000      3.85647325000000
  H   -2.16175740000000      1.19614176000000      1.94091531000000
  C   -1.78745729000000     -1.21205973000000     -0.09618996000000
  H   -2.85941097000000     -1.38197050000000     -0.28347097000000
  H   -1.34160191000000     -2.20864531000000     -0.22565304000000
  O   1.79462805000000     -0.99296989000000     -1.14860572000000
  C   2.25654526000000     -0.75404725000000     -2.32717343000000
  O   1.76350556000000      0.06155112000000     -3.12079509000000
  C   3.50103714000000     -1.56260886000000     -2.64399873000000
  H   3.34233323000000     -2.64195711000000     -2.49289627000000
  H   4.33396646000000     -1.28266683000000     -1.97679814000000
  H   3.78737370000000     -1.37876344000000     -3.66985133000000
