38
Coordinates from ORCA-job 2_14_orca
  Pd  0.64791256000000      0.51322447000000     -0.54765589000000
  O   2.20814907000000      1.52041864000000      0.27563166000000
  C   1.63858241000000      2.63900383000000      0.27237327000000
  O   0.40915995000000      2.66069126000000     -0.04000509000000
  C   2.46605222000000      3.85372565000000      0.56246143000000
  H   1.90776768000000      4.65192208000000      1.03438887000000
  H   2.85999218000000      4.25764280000000     -0.37172470000000
  H   3.33891636000000      3.61884670000000      1.18057668000000
  N   -1.23467953000000     -0.35824077000000     -1.16180440000000
  C   -1.24980574000000     -1.12467305000000     -2.44142978000000
  H   -0.89751096000000     -0.49291178000000     -3.26006382000000
  H   -2.27299177000000     -1.46243047000000     -2.67412874000000
  H   -0.59025595000000     -2.00496692000000     -2.39380377000000
  C   -2.17008012000000      0.77115469000000     -1.34693966000000
  H   -2.22248390000000      1.37545965000000     -0.42956885000000
  H   -3.18371959000000      0.40658722000000     -1.55631854000000
  H   -1.83295569000000      1.36113731000000     -2.19187516000000
  C   -1.52498611000000     -0.86284009000000      1.35758151000000
  C   -0.63202205000000     -1.66699339000000      1.99776267000000
  C   -0.42667408000000     -1.62209174000000      3.36305472000000
  C   -1.33396114000000     -0.88771768000000      4.14092023000000
  C   -2.26010662000000     -0.09775789000000      3.56571060000000
  C   -2.16635734000000      0.07890485000000      2.16357061000000
  H   -1.22511091000000     -0.85711491000000      5.19378345000000
  H   -3.08878956000000      0.42560286000000      4.08421199000000
  H   -0.05857842000000     -2.36469039000000      1.41970459000000
  H   0.38127784000000     -2.18679899000000      3.84568403000000
  H   -2.25834347000000      1.20869361000000      1.90127458000000
  C   -1.78065539000000     -1.21344539000000     -0.09694386000000
  H   -2.85608854000000     -1.38043609000000     -0.28328340000000
  H   -1.33584540000000     -2.19743541000000     -0.22609982000000
  O   1.78564312000000     -0.98876561000000     -1.14244826000000
  C   2.25534976000000     -0.75875390000000     -2.32359171000000
  O   1.78008171000000      0.04663280000000     -3.11065705000000
  C   3.49403284000000     -1.56869380000000     -2.64563093000000
  H   3.33375020000000     -2.64139226000000     -2.48939782000000
  H   4.32504022000000     -1.29198298000000     -1.97880804000000
  H   3.78957411000000     -1.39322549000000     -3.66954957000000
