38
Coordinates from ORCA-job 2_17_orca
  Pd  0.60740852000000      0.49375204000000     -0.55149995000000
  O   2.20646694000000      1.46018129000000      0.23859936000000
  C   1.61428908000000      2.59942413000000      0.27233536000000
  O   0.39849681000000      2.62953212000000      0.00778557000000
  C   2.47007259000000      3.81237037000000      0.56598732000000
  H   1.93232626000000      4.63021391000000      1.04056218000000
  H   2.88183774000000      4.18141775000000     -0.37284489000000
  H   3.31808126000000      3.52749251000000      1.17865100000000
  N   -1.26011970000000     -0.37959287000000     -1.16963320000000
  C   -1.23578708000000     -1.21353937000000     -2.39128448000000
  H   -0.87398936000000     -0.64677821000000     -3.23942570000000
  H   -2.24091433000000     -1.57605391000000     -2.63966439000000
  H   -0.60040448000000     -2.07668487000000     -2.29198161000000
  C   -2.18196894000000      0.72632282000000     -1.41140274000000
  H   -2.26236530000000      1.35436279000000     -0.54231337000000
  H   -3.18894854000000      0.35346372000000     -1.63138728000000
  H   -1.84593686000000      1.31457168000000     -2.25749120000000
  C   -1.51036807000000     -0.81699877000000      1.38253720000000
  C   -0.71213398000000     -1.75310211000000      2.05534430000000
  C   -0.54574832000000     -1.69116640000000      3.41934701000000
  C   -1.34594842000000     -0.89002916000000      4.19441970000000
  C   -2.23484579000000      0.01996388000000      3.53074028000000
  C   -1.97737388000000      0.26046183000000      2.18666325000000
  H   -1.27953050000000     -0.93047325000000      5.28479924000000
  H   -2.89800384000000      0.69620582000000      4.10133196000000
  H   -0.20741178000000     -2.44983388000000      1.40435948000000
  H   0.26746898000000     -2.24490177000000      3.82689857000000
  H   -1.99751467000000      1.26749683000000      1.81428121000000
  C   -1.82498225000000     -1.19331093000000     -0.05799472000000
  H   -2.90647044000000     -1.30985782000000     -0.25608470000000
  H   -1.41367967000000     -2.18927369000000     -0.15446731000000
  O   1.77459286000000     -0.98625709000000     -1.14830003000000
  C   2.24757474000000     -0.71297253000000     -2.34638960000000
  O   1.74259246000000      0.05603542000000     -3.11835234000000
  C   3.53261310000000     -1.45539879000000     -2.68264952000000
  H   3.41753448000000     -2.52360091000000     -2.55501778000000
  H   4.32566394000000     -1.15230511000000     -2.01000272000000
  H   3.83762219000000     -1.24213824000000     -3.71056412000000
