38
Coordinates from ORCA-job 2_18_orca
  Pd  0.59857797000000      0.48840567000000     -0.54694053000000
  O   2.19446924000000      1.42602481000000      0.20732464000000
  C   1.61044032000000      2.56645137000000      0.27429339000000
  O   0.38159533000000      2.61239750000000      0.03851357000000
  C   2.46763675000000      3.78149584000000      0.56596098000000
  H   1.94433833000000      4.61449371000000      1.04355802000000
  H   2.89476711000000      4.13531495000000     -0.37650427000000
  H   3.30727001000000      3.47012338000000      1.18113605000000
  N   -1.27765495000000     -0.39536168000000     -1.17600824000000
  C   -1.23102615000000     -1.26700333000000     -2.36472525000000
  H   -0.85622211000000     -0.73586879000000     -3.22493925000000
  H   -2.22244942000000     -1.64372149000000     -2.61324856000000
  H   -0.59825326000000     -2.12578121000000     -2.22066750000000
  C   -2.19339386000000      0.70271004000000     -1.45893786000000
  H   -2.28521323000000      1.34984632000000     -0.60337070000000
  H   -3.19063060000000      0.31882646000000     -1.67967612000000
  H   -1.85079115000000      1.28876134000000     -2.29868598000000
  C   -1.49215869000000     -0.77239368000000      1.41118959000000
  C   -0.78069077000000     -1.79322792000000      2.07534373000000
  C   -0.61360740000000     -1.72864375000000      3.44694216000000
  C   -1.38586217000000     -0.88722735000000      4.22593758000000
  C   -2.17661914000000      0.11876940000000      3.52520645000000
  C   -1.87951791000000      0.32815436000000      2.19525654000000
  H   -1.31677673000000     -0.97206315000000      5.32621759000000
  H   -2.75455877000000      0.85208349000000      4.10126722000000
  H   -0.29301155000000     -2.51522254000000      1.40458604000000
  H   0.20897094000000     -2.30029358000000      3.83521752000000
  H   -1.87593505000000      1.31157857000000      1.74526674000000
  C   -1.84367240000000     -1.17260089000000     -0.03115946000000
  H   -2.93225910000000     -1.26124694000000     -0.22935684000000
  H   -1.45964987000000     -2.19452819000000     -0.11780586000000
  O   1.76657758000000     -0.98811851000000     -1.16063192000000
  C   2.24228674000000     -0.68985169000000     -2.35118953000000
  O   1.71576217000000      0.06785602000000     -3.12896067000000
  C   3.55246207000000     -1.38316055000000     -2.70888752000000
  H   3.46766144000000     -2.45710969000000     -2.59640528000000
  H   4.32962011000000     -1.06284838000000     -2.02536705000000
  H   3.86436977000000     -1.14847243000000     -3.73113654000000
