38
Coordinates from ORCA-job 2_1_orca
  Pd  0.69380609000000      0.60591111000000     -0.54397094000000
  O   2.28733005000000      1.56318285000000      0.28198255000000
  C   1.65868031000000      2.73051757000000      0.24544261000000
  O   0.49096416000000      2.73798282000000     -0.07934085000000
  C   2.44842254000000      3.98501188000000      0.55112673000000
  H   1.79100102000000      4.70561487000000      1.03575671000000
  H   2.78144941000000      4.41633988000000     -0.39304100000000
  H   3.31537763000000      3.79797187000000      1.16615404000000
  N   -1.19384795000000     -0.25221403000000     -1.17655947000000
  C   -1.24602021000000     -0.86507441000000     -2.51017501000000
  H   -0.94832986000000     -0.13528591000000     -3.25553566000000
  H   -2.27961693000000     -1.17133094000000     -2.72953183000000
  H   -0.61692628000000     -1.72366409000000     -2.58920194000000
  C   -2.10837247000000      0.88614997000000     -1.17974736000000
  H   -2.07824014000000      1.42775565000000     -0.25971546000000
  H   -3.13440468000000      0.54543115000000     -1.37697517000000
  H   -1.81564708000000      1.57275453000000     -1.97192240000000
  C   -1.43135194000000     -0.93774942000000      1.26551564000000
  C   -0.37525383000000     -1.59524476000000      1.97854443000000
  C   -0.23753511000000     -1.49604852000000      3.33725497000000
  C   -1.19928359000000     -0.87479480000000      4.07264583000000
  C   -2.34240667000000     -0.37811345000000      3.43845075000000
  C   -2.45312875000000     -0.19867833000000      2.08092953000000
  H   -1.10877847000000     -0.78524292000000      5.15386027000000
  H   -3.19231722000000     -0.19209584000000      4.06314246000000
  H   0.33385911000000     -2.20058324000000      1.43642963000000
  H   0.57884044000000     -2.00644139000000      3.84377172000000
  H   -3.54984985000000      0.88063656000000      1.80504649000000
  C   -1.63118494000000     -1.27668068000000     -0.16819906000000
  H   -2.69823351000000     -1.47883519000000     -0.30016164000000
  H   -1.12001445000000     -2.21821777000000     -0.41623111000000
  O   1.71472485000000     -1.01261676000000     -1.06207234000000
  C   2.26656610000000     -0.86670902000000     -2.26130410000000
  O   1.94949507000000     -0.04313460000000     -3.06451344000000
  C   3.39368386000000     -1.86208632000000     -2.54540606000000
  H   3.10237429000000     -2.88052723000000     -2.34337309000000
  H   4.25114140000000     -1.62350024000000     -1.93655058000000
  H   3.70395730000000     -1.78296047000000     -3.59519116000000
