38
Coordinates from ORCA-job 2_21_orca
  Pd  0.60658692000000      0.48599338000000     -0.54694588000000
  O   2.18506737000000      1.43614484000000      0.18157919000000
  C   1.61155494000000      2.56413744000000      0.27519351000000
  O   0.37778019000000      2.60273690000000      0.05694616000000
  C   2.46432890000000      3.75999036000000      0.56181550000000
  H   1.93520447000000      4.58798734000000      1.03395911000000
  H   2.88862974000000      4.12542683000000     -0.37818468000000
  H   3.30399825000000      3.46241274000000      1.18852119000000
  N   -1.26314535000000     -0.38839156000000     -1.16519805000000
  C   -1.22497866000000     -1.27487576000000     -2.35497298000000
  H   -0.83986941000000     -0.72900794000000     -3.21603741000000
  H   -2.23157776000000     -1.64909053000000     -2.59454434000000
  H   -0.57779126000000     -2.13205517000000     -2.17881816000000
  C   -2.19541255000000      0.71396685000000     -1.46636951000000
  H   -2.28100909000000      1.36917932000000     -0.60220300000000
  H   -3.19181278000000      0.31125947000000     -1.69804497000000
  H   -1.83701537000000      1.29998389000000     -2.31140440000000
  C   -1.47183279000000     -0.79140446000000      1.39213453000000
  C   -0.78608870000000     -1.78082662000000      2.07352710000000
  C   -0.61443347000000     -1.73785880000000      3.44185767000000
  C   -1.40201835000000     -0.87859091000000      4.20500876000000
  C   -2.02504197000000      0.15715998000000      3.55598551000000
  C   -1.92338712000000      0.29445817000000      2.15686640000000
  H   -1.34636754000000     -0.95208799000000      5.28268641000000
  H   -2.64208146000000      0.87675587000000      4.09183454000000
  H   -0.31081404000000     -2.53653159000000      1.46718626000000
  H   0.17201747000000     -2.34925091000000      3.88634052000000
  H   -2.04954315000000      1.28518212000000      1.68520802000000
  C   -1.81530823000000     -1.16329770000000     -0.03355289000000
  H   -2.90724674000000     -1.22839525000000     -0.17520382000000
  H   -1.47100623000000     -2.18897366000000     -0.13397722000000
  O   1.75907133000000     -0.99735215000000     -1.18235450000000
  C   2.23524478000000     -0.69674463000000     -2.35459209000000
  O   1.70836540000000      0.07823887000000     -3.13171629000000
  C   3.54413982000000     -1.37178155000000     -2.70478012000000
  H   3.47007382000000     -2.45505175000000     -2.60804145000000
  H   4.33090808000000     -1.04264170000000     -2.02123882000000
  H   3.85445280000000     -1.12965566000000     -3.72087167000000
