38
Coordinates from ORCA-job 2_24_orca
  Pd  0.60566690000000      0.48382747000000     -0.55509104000000
  O   2.20139832000000      1.44365866000000      0.16518323000000
  C   1.60693292000000      2.56222483000000      0.27032439000000
  O   0.36972413000000      2.59700207000000      0.06740894000000
  C   2.46642419000000      3.76021251000000      0.56182274000000
  H   1.91747117000000      4.57040138000000      1.02627770000000
  H   2.88003290000000      4.12647889000000     -0.37812994000000
  H   3.30412150000000      3.47167003000000      1.19328168000000
  N   -1.25139682000000     -0.37012893000000     -1.16697860000000
  C   -1.21496665000000     -1.25834573000000     -2.34980005000000
  H   -0.83294086000000     -0.70900239000000     -3.20205445000000
  H   -2.22482911000000     -1.62801750000000     -2.57828570000000
  H   -0.56653889000000     -2.11103386000000     -2.16472095000000
  C   -2.18268061000000      0.72916293000000     -1.45756599000000
  H   -2.27377853000000      1.38409431000000     -0.59543104000000
  H   -3.17546926000000      0.32572556000000     -1.69770176000000
  H   -1.82436893000000      1.30944099000000     -2.30214728000000
  C   -1.47451319000000     -0.80739180000000      1.38985735000000
  C   -0.74422442000000     -1.76558159000000      2.07671571000000
  C   -0.59267215000000     -1.75572517000000      3.44799590000000
  C   -1.32812621000000     -0.85904102000000      4.17717751000000
  C   -1.98735502000000      0.17673689000000      3.49758911000000
  C   -1.96000431000000      0.28118049000000      2.12912240000000
  H   -1.36248744000000     -0.91710844000000      5.26592790000000
  H   -2.56360751000000      0.87981673000000      4.09380906000000
  H   -0.28729338000000     -2.55981744000000      1.50936708000000
  H   0.12069825000000     -2.39005976000000      3.92366530000000
  H   -2.27204183000000      1.20108780000000      1.66749471000000
  C   -1.80102856000000     -1.16557994000000     -0.04001746000000
  H   -2.88792663000000     -1.20882436000000     -0.14038914000000
  H   -1.46092688000000     -2.19028054000000     -0.16792733000000
  O   1.74537742000000     -1.00943066000000     -1.18900172000000
  C   2.22672867000000     -0.69965251000000     -2.36299590000000
  O   1.71163604000000      0.08483058000000     -3.13275934000000
  C   3.53861252000000     -1.38704767000000     -2.69592496000000
  H   3.45985704000000     -2.46735096000000     -2.60456303000000
  H   4.32037792000000     -1.05368845000000     -2.01369867000000
  H   3.83627045000000     -1.13608749000000     -3.70871738000000
