38
Coordinates from ORCA-job 2_25_orca
  Pd  0.60875803000000      0.48557647000000     -0.55544150000000
  O   2.20320691000000      1.44174351000000      0.15748825000000
  C   1.60682791000000      2.55928420000000      0.26915537000000
  O   0.36747308000000      2.59371029000000      0.07164183000000
  C   2.46463126000000      3.75776108000000      0.56150965000000
  H   1.91163712000000      4.56751572000000      1.02561648000000
  H   2.87907711000000      4.12550009000000     -0.37934069000000
  H   3.30417174000000      3.47195253000000      1.19491103000000
  N   -1.25152712000000     -0.36702482000000     -1.16653428000000
  C   -1.21167502000000     -1.25523458000000     -2.34708212000000
  H   -0.82984716000000     -0.70711295000000     -3.19823554000000
  H   -2.22004100000000     -1.62381923000000     -2.57186945000000
  H   -0.56336198000000     -2.10614640000000     -2.15850968000000
  C   -2.17938633000000      0.73280736000000     -1.45694411000000
  H   -2.27254041000000      1.38844018000000     -0.59611129000000
  H   -3.16926406000000      0.32937072000000     -1.69906029000000
  H   -1.82016481000000      1.31124318000000     -2.30126728000000
  C   -1.47256203000000     -0.80332562000000      1.39137634000000
  C   -0.73433327000000     -1.76794396000000      2.07642334000000
  C   -0.59055444000000     -1.75503841000000      3.44844811000000
  C   -1.31497890000000     -0.84342084000000      4.17382375000000
  C   -1.97931277000000      0.18522657000000      3.49261619000000
  C   -1.96671462000000      0.27519184000000      2.11869458000000
  H   -1.36477131000000     -0.90643229000000      5.26152844000000
  H   -2.53274560000000      0.88704551000000      4.09057823000000
  H   -0.28075474000000     -2.57221175000000      1.51717857000000
  H   0.10801925000000     -2.41299316000000      3.93762431000000
  H   -2.33274279000000      1.17726208000000      1.65817438000000
  C   -1.79757281000000     -1.16617912000000     -0.03771150000000
  H   -2.88719729000000     -1.20156645000000     -0.13296655000000
  H   -1.45916992000000     -2.19312540000000     -0.17738887000000
  O   1.73964186000000     -1.01300792000000     -1.19234840000000
  C   2.22410850000000     -0.69906261000000     -2.36398488000000
  O   1.71196643000000      0.08674394000000     -3.13363235000000
  C   3.53596440000000     -1.38763214000000     -2.69503517000000
  H   3.45896456000000     -2.46907137000000     -2.60478550000000
  H   4.31710596000000     -1.05362237000000     -2.01138334000000
  H   3.83301341000000     -1.13399822000000     -3.70780251000000
