38
Coordinates from ORCA-job 2_26_orca
  Pd  0.61462619000000      0.48834580000000     -0.55836075000000
  O   2.20895994000000      1.44215022000000      0.13889954000000
  C   1.60872426000000      2.55389137000000      0.26621158000000
  O   0.36481890000000      2.58332257000000      0.08107376000000
  C   2.45932207000000      3.75399022000000      0.56094185000000
  H   1.89486814000000      4.55976070000000      1.02290832000000
  H   2.87508579000000      4.12598905000000     -0.38105361000000
  H   3.30423525000000      3.47807807000000      1.19843462000000
  N   -1.24714214000000     -0.35803212000000     -1.15905221000000
  C   -1.20233779000000     -1.24096306000000     -2.33937888000000
  H   -0.82166170000000     -0.69403943000000     -3.19062790000000
  H   -2.20921215000000     -1.60726206000000     -2.55684052000000
  H   -0.55374649000000     -2.08855427000000     -2.14728084000000
  C   -2.16826920000000      0.74462232000000     -1.45073882000000
  H   -2.26716383000000      1.40138108000000     -0.59278402000000
  H   -3.15307205000000      0.34309971000000     -1.69936184000000
  H   -1.80666948000000      1.31853213000000     -2.29651991000000
  C   -1.45995024000000     -0.81127136000000      1.38598656000000
  C   -0.70178054000000     -1.76891214000000      2.07368049000000
  C   -0.57264559000000     -1.75417803000000      3.44959318000000
  C   -1.27534878000000     -0.79510564000000      4.16317921000000
  C   -1.95524874000000      0.19154293000000      3.48276567000000
  C   -1.99685668000000      0.25373057000000      2.09384179000000
  H   -1.36530295000000     -0.86840756000000      5.24121568000000
  H   -2.46442044000000      0.90341706000000      4.08430663000000
  H   -0.25686025000000     -2.59871148000000      1.53921384000000
  H   0.06888783000000     -2.47092525000000      3.97327977000000
  H   -2.51441796000000      1.10785127000000      1.63736571000000
  C   -1.78914761000000     -1.16997703000000     -0.03532558000000
  H   -2.88327253000000     -1.18604780000000     -0.11606950000000
  H   -1.45184051000000     -2.19706897000000     -0.20563661000000
  O   1.72374848000000     -1.02152380000000     -1.20213300000000
  C   2.21928666000000     -0.70380264000000     -2.36372182000000
  O   1.71327676000000      0.09439090000000     -3.13730359000000
  C   3.52589914000000     -1.39437315000000     -2.69089750000000
  H   3.45241871000000     -2.47866145000000     -2.60184955000000
  H   4.30691733000000     -1.06126692000000     -2.00334439000000
  H   3.82173865000000     -1.13555917000000     -3.70367012000000
