38
Coordinates from ORCA-job 2_27_orca
  Pd  0.61479418000000      0.48875863000000     -0.55845213000000
  O   2.20939734000000      1.43870465000000      0.13027386000000
  C   1.61006156000000      2.54943085000000      0.26586743000000
  O   0.36588583000000      2.57586892000000      0.08613334000000
  C   2.45672147000000      3.75159327000000      0.56118746000000
  H   1.89070540000000      4.55748007000000      1.02273562000000
  H   2.87522922000000      4.12238124000000     -0.38075149000000
  H   3.30212505000000      3.47637951000000      1.19846542000000
  N   -1.24615805000000     -0.35803531000000     -1.15227056000000
  C   -1.19813972000000     -1.23902749000000     -2.33350043000000
  H   -0.81682426000000     -0.69674171000000     -3.18895445000000
  H   -2.20405445000000     -1.60756527000000     -2.55074023000000
  H   -0.54984618000000     -2.08671221000000     -2.13977918000000
  C   -2.16433015000000      0.74617767000000     -1.45153136000000
  H   -2.26700684000000      1.40555239000000     -0.59622905000000
  H   -3.14871924000000      0.34580382000000     -1.70317023000000
  H   -1.80059339000000      1.31842365000000     -2.29893262000000
  C   -1.44794142000000     -0.81545333000000      1.38480666000000
  C   -0.69779846000000     -1.77420790000000      2.07467245000000
  C   -0.56850786000000     -1.75315201000000      3.45667023000000
  C   -1.26327860000000     -0.78316348000000      4.16386093000000
  C   -1.94838443000000      0.20246392000000      3.48261907000000
  C   -2.00399912000000      0.25245253000000      2.08873077000000
  H   -1.36021399000000     -0.85199608000000      5.23702835000000
  H   -2.43924188000000      0.92838497000000      4.08160428000000
  H   -0.25436134000000     -2.61120298000000      1.54146685000000
  H   0.04576800000000     -2.49409084000000      3.98178108000000
  H   -2.55639154000000      1.08144681000000      1.62991065000000
  C   -1.79191409000000     -1.17175872000000     -0.03404116000000
  H   -2.88699726000000     -1.17953286000000     -0.11452566000000
  H   -1.45470371000000     -2.19749300000000     -0.21066929000000
  O   1.71658268000000     -1.02381978000000     -1.20617450000000
  C   2.21526147000000     -0.70099614000000     -2.36674598000000
  O   1.71373128000000      0.09525463000000     -3.13637045000000
  C   3.52367800000000     -1.39051274000000     -2.69274273000000
  H   3.45421072000000     -2.47567100000000     -2.60377889000000
  H   4.30250108000000     -1.05785452000000     -2.00165586000000
  H   3.82102326000000     -1.12856777000000     -3.70518779000000
