38
Coordinates from ORCA-job 2_28_orca
  Pd  0.61103155000000      0.48625934000000     -0.55867050000000
  O   2.21071658000000      1.43316913000000      0.11490646000000
  C   1.61223704000000      2.54176810000000      0.26602466000000
  O   0.36801796000000      2.56135858000000      0.09675461000000
  C   2.45323748000000      3.74548956000000      0.56154436000000
  H   1.88605206000000      4.55076832000000      1.02155376000000
  H   2.87558476000000      4.11267796000000     -0.37893316000000
  H   3.29652513000000      3.46998263000000      1.19810530000000
  N   -1.24246287000000     -0.35846797000000     -1.14006142000000
  C   -1.19035247000000     -1.24066725000000     -2.32165456000000
  H   -0.80693904000000     -0.70618549000000     -3.18564359000000
  H   -2.19720254000000     -1.61431438000000     -2.54005394000000
  H   -0.54202514000000     -2.08842456000000     -2.12191582000000
  C   -2.15878515000000      0.74700951000000     -1.45591734000000
  H   -2.26775007000000      1.41291776000000     -0.60521639000000
  H   -3.14448094000000      0.34682235000000     -1.71380489000000
  H   -1.78947703000000      1.31645768000000     -2.30649322000000
  C   -1.42935638000000     -0.82308466000000      1.38153997000000
  C   -0.69471666000000     -1.78608838000000      2.08299875000000
  C   -0.56777158000000     -1.75467640000000      3.46752977000000
  C   -1.24709037000000     -0.77149893000000      4.16319164000000
  C   -1.92166324000000      0.22599255000000      3.47806708000000
  C   -2.01130488000000      0.24814656000000      2.08713660000000
  H   -1.35140210000000     -0.82427723000000      5.23207014000000
  H   -2.39443895000000      0.98471869000000      4.07897014000000
  H   -0.26097361000000     -2.62962115000000      1.54889950000000
  H   -0.00042935000000     -2.52957791000000      3.99410369000000
  H   -2.61166029000000      1.04161293000000      1.61333594000000
  C   -1.79722083000000     -1.17394584000000     -0.03258290000000
  H   -2.89279898000000     -1.16643162000000     -0.10969213000000
  H   -1.46585998000000     -2.19567072000000     -0.21430247000000
  O   1.70502745000000     -1.02692976000000     -1.21468044000000
  C   2.20976503000000     -0.69924363000000     -2.37021148000000
  O   1.71063413000000      0.10076647000000     -3.13755180000000
  C   3.52165436000000     -1.37875313000000     -2.69746362000000
  H   3.46038933000000     -2.46469221000000     -2.61061987000000
  H   4.29535199000000     -1.04557293000000     -2.00047483000000
  H   3.82169273000000     -1.11036707000000     -3.70808114000000
