38
Coordinates from ORCA-job 2_29_orca
  Pd  0.60298270000000      0.48058188000000     -0.55698558000000
  O   2.21461845000000      1.42617903000000      0.10016322000000
  C   1.61556288000000      2.53187498000000      0.26669605000000
  O   0.37058102000000      2.54408260000000      0.10880727000000
  C   2.44977589000000      3.73832555000000      0.56214472000000
  H   1.88478206000000      4.54467389000000      1.02087348000000
  H   2.87722918000000      4.09956276000000     -0.37546993000000
  H   3.28870255000000      3.46000113000000      1.19689229000000
  N   -1.23975388000000     -0.36033504000000     -1.13057630000000
  C   -1.18166989000000     -1.24840903000000     -2.30961782000000
  H   -0.79600650000000     -0.72291967000000     -3.18139628000000
  H   -2.18934292000000     -1.62793732000000     -2.53017036000000
  H   -0.53397010000000     -2.09524919000000     -2.10221043000000
  C   -2.15446803000000      0.74472644000000     -1.46329179000000
  H   -2.26964457000000      1.41933760000000     -0.61878934000000
  H   -3.14237387000000      0.34512098000000     -1.72785875000000
  H   -1.77631567000000      1.30950644000000     -2.31642493000000
  C   -1.41813606000000     -0.82956476000000      1.38535810000000
  C   -0.69747689000000     -1.80137441000000      2.09432130000000
  C   -0.57427871000000     -1.76104507000000      3.47717989000000
  C   -1.23975389000000     -0.76172056000000      4.16234928000000
  C   -1.89686417000000      0.25761469000000      3.47960597000000
  C   -2.00929318000000      0.23946610000000      2.09233138000000
  H   -1.33045367000000     -0.79197331000000      5.23562575000000
  H   -2.35582513000000      1.05328916000000      4.07064139000000
  H   -0.27834526000000     -2.64278844000000      1.55252266000000
  H   -0.05514923000000     -2.55690459000000      3.99842591000000
  H   -2.62255604000000      1.00196346000000      1.60217442000000
  C   -1.80684028000000     -1.17439734000000     -0.02789466000000
  H   -2.90278068000000     -1.15545881000000     -0.11167115000000
  H   -1.48567401000000     -2.19470684000000     -0.21043982000000
  O   1.69368694000000     -1.02941937000000     -1.22331385000000
  C   2.20387335000000     -0.69657847000000     -2.37463252000000
  O   1.70507910000000      0.10833296000000     -3.13957754000000
  C   3.52211660000000     -1.36105649000000     -2.70506701000000
  H   3.47034204000000     -2.44581589000000     -2.62126441000000
  H   4.28726075000000     -1.02693866000000     -2.00156094000000
  H   3.82632238000000     -1.08507942000000     -3.71318334000000
