38
Coordinates from ORCA-job 2_2_orca
  Pd  0.67304720000000      0.59787745000000     -0.55338554000000
  O   2.28574902000000      1.59277582000000      0.28506725000000
  C   1.69373748000000      2.72412071000000      0.24939944000000
  O   0.49210242000000      2.74181791000000     -0.08142098000000
  C   2.43925861000000      3.98838418000000      0.54790348000000
  H   1.78521975000000      4.70850643000000      1.03601885000000
  H   2.77692180000000      4.42352869000000     -0.39378203000000
  H   3.31189828000000      3.80559060000000      1.16439483000000
  N   -1.17811766000000     -0.25266550000000     -1.15646015000000
  C   -1.25249880000000     -0.83997372000000     -2.50591073000000
  H   -0.95024907000000     -0.11682934000000     -3.25844869000000
  H   -2.27815463000000     -1.15775366000000     -2.73621698000000
  H   -0.61944627000000     -1.70646410000000     -2.59890386000000
  C   -2.10348834000000      0.88423336000000     -1.17890514000000
  H   -2.06690690000000      1.43088300000000     -0.25339402000000
  H   -3.13258167000000      0.55600672000000     -1.36720340000000
  H   -1.81686310000000      1.59067684000000     -1.95638530000000
  C   -1.42544129000000     -0.94335857000000      1.27267205000000
  C   -0.37094967000000     -1.57715364000000      1.96655823000000
  C   -0.23720037000000     -1.50510279000000      3.33743290000000
  C   -1.19135109000000     -0.84416498000000      4.07227349000000
  C   -2.35114899000000     -0.42167819000000      3.43196216000000
  C   -2.40247096000000     -0.23328100000000      2.05850488000000
  H   -1.10268360000000     -0.78675535000000      5.15182742000000
  H   -3.19264993000000     -0.21602497000000      4.07573814000000
  H   0.35029394000000     -2.18724695000000      1.44035906000000
  H   0.58853053000000     -1.99345869000000      3.84249904000000
  H   -3.66224361000000      0.86518643000000      1.78385746000000
  C   -1.62152554000000     -1.27974694000000     -0.17438079000000
  H   -2.69131610000000     -1.48362807000000     -0.30020035000000
  H   -1.10945408000000     -2.21446355000000     -0.42598237000000
  O   1.71235750000000     -1.00583989000000     -1.06371521000000
  C   2.26813372000000     -0.88400298000000     -2.24388211000000
  O   1.96214577000000     -0.05044944000000     -3.06172951000000
  C   3.38064150000000     -1.86997733000000     -2.54823178000000
  H   3.08808655000000     -2.89235660000000     -2.33533662000000
  H   4.24731595000000     -1.64151646000000     -1.93339436000000
  H   3.70166866000000     -1.80671407000000     -3.59024483000000
