30
Coordinates from ORCA-job 6_0_orca
  Lu  0.12042000000000      0.42874000000000     -0.28000000000000
  C   0.17963000000000      1.15615000000000      2.19054000000000
  C   1.02904000000000      0.03068000000000      2.11439000000000
  C   2.15013000000000      0.38305000000000      1.33973000000000
  C   1.99070000000000      1.72133000000000      0.92554000000000
  C   0.77449000000000      2.20088000000000      1.46118000000000
  H   2.69909000000000      2.29131000000000      0.34087000000000
  H   0.36543000000000      3.19184000000000      1.33125000000000
  H   -0.76043000000000      1.20984000000000      2.71996000000000
  H   0.86700000000000     -0.92232000000000      2.59763000000000
  H   2.99031000000000     -0.25647000000000      1.11492000000000
  C   1.14140000000000     -0.04440000000000     -2.59562000000000
  C   -0.21370000000000     -0.43136000000000     -2.68604000000000
  C   0.84022000000000     -1.86120000000000     -1.25171000000000
  C   1.79240000000000     -0.93563000000000     -1.71825000000000
  H   1.60958000000000      0.76323000000000     -3.14098000000000
  C   -0.39901000000000     -1.54924000000000     -1.85316000000000
  H   -0.97545000000000      0.04688000000000     -3.28238000000000
  H   2.84052000000000     -0.91925000000000     -1.45957000000000
  H   1.03333000000000     -2.68535000000000     -0.57946000000000
  H   -1.32717000000000     -2.08388000000000     -1.70900000000000
  C   -2.04571000000000     -1.76530000000000      1.42181000000000
  H   -2.18071000000000     -1.68564000000000      2.49699000000000
  H   -2.69749000000000     -2.53854000000000      1.02423000000000
  H   -2.30740000000000     -0.81350000000000      0.95936000000000
  C   -1.85870000000000      1.60331000000000     -0.61471000000000
  H   -1.01219000000000     -2.03830000000000      1.21528000000000
  H   -1.69659000000000      2.46323000000000     -1.28040000000000
  H   -2.29974000000000      2.02244000000000      0.29641000000000
  H   -2.64941000000000      1.01746000000000     -1.09880000000000
