38
autodE path point 0. E = none charge = 0 mult = 1 
Pd    0.82870   0.73900  -0.60406
O     2.45890   1.87027  -0.05280
C     1.70181   2.86527   0.09377
O     0.46137   2.68779  -0.09865
C     2.24296   4.21326   0.43766
H     1.49914   4.81145   0.95876
H     2.50943   4.73366  -0.48397
H     3.14321   4.12639   1.04172
N    -1.07263   0.00613  -1.06554
C    -1.15940  -0.25655  -2.51416
H    -0.89237   0.63671  -3.07390
H    -2.17942  -0.55109  -2.78294
H    -0.47917  -1.05247  -2.79967
C    -2.06321   1.04065  -0.72428
H    -2.00206   1.30545   0.32747
H    -3.07436   0.68024  -0.94281
H    -1.88014   1.93441  -1.31557
C    -1.33454  -1.15969   1.14989
C    -0.14331  -1.36246   1.84230
C    -0.11255  -1.27696   3.22579
C    -1.27019  -0.99590   3.93609
C    -2.46488  -0.81036   3.25741
C    -2.49384  -0.89690   1.87414
H    -1.24339  -0.93301   5.01592
H    -3.37562  -0.60532   3.80442
H     0.76045  -1.60696   1.29944
H     0.82014  -1.43892   3.74968
H    -3.43445  -0.76586   1.35141
C    -1.38065  -1.26129  -0.34797
H    -2.38049  -1.58796  -0.66223
H    -0.66999  -2.00856  -0.69644
O     1.60612  -1.03807  -0.96913
C     2.23274  -1.12529  -2.10753
O     2.22304  -0.26682  -2.96556
C     3.00099  -2.42045  -2.26795
H     2.41501  -3.27879  -1.94093
H     3.89798  -2.39130  -1.64723
H     3.30467  -2.55970  -3.30253
38
autodE path point 1. E = none charge = 0 mult = 1 
Pd    0.67797   0.57528  -0.52152
O     2.27685   1.63127   0.32179
C     1.70639   2.74103   0.26256
O     0.48456   2.74446  -0.08286
C     2.45121   4.00426   0.54879
H     1.80424   4.72554   1.04207
H     2.78831   4.43751  -0.39442
H     3.32953   3.80697   1.15854
N    -1.15949  -0.26811  -1.14053
C    -1.24406  -0.87269  -2.49226
H    -0.95832  -0.16307  -3.26638
H    -2.26066  -1.21379  -2.72517
H    -0.59256  -1.73451  -2.58620
C    -2.08993   0.87079  -1.18833
H    -2.04706   1.41667  -0.25578
H    -3.12159   0.55533  -1.37396
H    -1.79891   1.57347  -1.96628
C    -1.44667  -0.93963   1.28535
C    -0.40914  -1.59181   1.95274
C    -0.28618  -1.54533   3.32777
C    -1.20857  -0.84400   4.08132
C    -2.36241  -0.40683   3.44153
C    -2.40000  -0.25895   2.04884
H    -1.09141  -0.79554   5.15619
H    -3.12732  -0.01484   4.10368
H     0.33978  -2.17600   1.43212
H     0.54859  -2.02129   3.82488
H    -3.67229   0.79754   1.72667
C    -1.62679  -1.28212  -0.16415
H    -2.69485  -1.49392  -0.30843
H    -1.11276  -2.21007  -0.42751
O     1.69237  -1.02085  -1.05384
C     2.27963  -0.86833  -2.20511
O     1.99665  -0.00324  -3.01430
C     3.37532  -1.84981  -2.57737
H     3.03972  -2.86669  -2.37923
H     4.25723  -1.65948  -1.96626
H     3.66262  -1.77923  -3.62493
38
autodE path point 2. E = none charge = 0 mult = 1 
Pd    0.53693   0.42997  -0.44723
O     2.09916   1.48857   0.55469
C     1.73152   2.65079   0.31493
O     0.55632   2.77893  -0.17191
C     2.60317   3.83632   0.58587
H     2.04766   4.64654   1.05346
H     2.98881   4.21096  -0.36421
H     3.44959   3.56296   1.21087
N    -1.25194  -0.55022  -1.09332
C    -1.24918  -1.37992  -2.32550
H    -0.91961  -0.84464  -3.21275
H    -2.24925  -1.75107  -2.59347
H    -0.60064  -2.23764  -2.18729
C    -2.14103   0.57269  -1.46512
H    -2.23701   1.27682  -0.65567
H    -3.16164   0.28065  -1.73758
H    -1.72839   1.14367  -2.29266
C    -1.50399  -0.94514   1.36597
C    -0.72431  -1.85001   2.07726
C    -0.61228  -1.80100   3.44942
C    -1.19661  -0.76117   4.13724
C    -2.06909   0.06376   3.44621
C    -2.11584   0.11020   2.05489
H    -1.04574  -0.67662   5.20563
H    -2.71538   0.67428   4.06469
H    -0.25853  -2.71144   1.61182
H    -0.04205  -2.54072   3.99606
H    -2.71560   2.51625   1.91055
C    -1.92244  -1.33248  -0.02342
H    -3.02289  -1.29963  -0.05833
H    -1.74694  -2.40359  -0.17527
O     1.85973  -0.82157  -1.15584
C     2.28620  -0.64762  -2.36769
O     1.70560   0.03220  -3.18882
C     3.58307  -1.29396  -2.80723
H     3.47720  -2.37779  -2.77894
H     4.39260  -1.02338  -2.12769
H     3.91279  -1.02597  -3.80957
38
autodE path point 3. E = none charge = 0 mult = 1 
Pd    0.44796   0.21468  -0.33161
O     1.98756   1.41575   0.68207
C     1.78491   2.59403   0.36667
O     0.66067   2.82568  -0.21161
C     2.74914   3.70950   0.61523
H     2.26416   4.58124   1.05109
H     3.17411   4.03170  -0.33712
H     3.55517   3.38024   1.26497
N    -1.34936  -0.74460  -0.96564
C    -1.20326  -1.80387  -1.98767
H    -0.78157  -1.49102  -2.93776
H    -2.17434  -2.18477  -2.34769
H    -0.54374  -2.55934  -1.57545
C    -2.08962   0.31644  -1.66422
H    -2.23560   1.18330  -1.03237
H    -3.08922   0.00548  -1.99991
H    -1.57971   0.67921  -2.55235
C    -1.57365  -1.03903   1.44249
C    -1.21091  -2.10287   2.26370
C    -1.07785  -1.97530   3.63332
C    -1.09957  -0.71260   4.18955
C    -1.55621   0.33197   3.39713
C    -1.82018   0.19177   2.04312
H    -0.90744  -0.59433   5.24843
H    -1.63788   1.28564   3.90544
H    -1.34907  -3.13906   1.96390
H    -0.94410  -2.82612   4.29192
H    -2.22650   3.36478   1.41554
C    -2.21680  -1.28845   0.11253
H    -3.24574  -0.89359   0.14725
H    -2.44768  -2.35933   0.02596
O     2.00035  -0.25441  -1.45493
C     2.28703  -0.47721  -2.68410
O     1.43182  -0.55104  -3.53203
C     3.70915  -0.74059  -3.05274
H     3.91069  -1.78489  -3.27304
H     4.37412  -0.47340  -2.23225
H     4.02315  -0.11560  -3.88780
38
autodE path point 4. E = none charge = 0 mult = 1 
Pd    0.39428   0.12929  -0.28054
O     1.92631   1.38756   0.66410
C     1.77575   2.57262   0.37475
O     0.64595   2.90834  -0.15457
C     2.75715   3.67478   0.61286
H     2.31750   4.57334   1.04332
H     3.17365   3.96455  -0.35393
H     3.55489   3.32289   1.25941
N    -1.38927  -0.79368  -0.94315
C    -1.22693  -1.96496  -1.83244
H    -0.71360  -1.74832  -2.76311
H    -2.19292  -2.33059  -2.21415
H    -0.63832  -2.69654  -1.29147
C    -2.03808   0.21732  -1.78763
H    -2.21121   1.14809  -1.26025
H    -3.02727  -0.10699  -2.14087
H    -1.44249   0.45564  -2.66464
C    -1.57230  -1.13398   1.44196
C    -1.51210  -2.20652   2.32518
C    -1.34551  -2.05204   3.68930
C    -1.01102  -0.80351   4.17454
C    -1.21565   0.28210   3.33547
C    -1.48914   0.14217   1.98759
H    -0.82703  -0.66802   5.23268
H    -1.01645   1.24599   3.78832
H    -1.93402  -3.17865   2.06974
H    -1.40262  -2.87368   4.39357
H    -1.67103   3.78903   1.15704
C    -2.32150  -1.19630   0.14389
H    -3.24329  -0.59618   0.20712
H    -2.77671  -2.19376   0.05246
O     1.86118  -0.03018  -1.56367
C     2.23455  -0.37292  -2.72572
O     1.59026  -1.23585  -3.29119
C     3.69055  -0.40756  -3.10104
H     4.10825  -1.39561  -3.31950
H     4.35933  -0.07546  -2.30565
H     3.82886   0.24761  -3.95977
38
autodE path point 5. E = none charge = 0 mult = 1 
Pd    0.39250   0.14405  -0.21846
O     1.96409   1.35294   0.61119
C     1.86137   2.55860   0.41441
O     0.75887   3.02353  -0.09251
C     2.95595   3.54206   0.68866
H     2.60965   4.46862   1.14418
H     3.41328   3.80315  -0.26750
H     3.70777   3.07986   1.32072
N    -1.28359  -0.94001  -0.90321
C    -0.93926  -2.30272  -1.35683
H    -0.17380  -2.29394  -2.12195
H    -1.78350  -2.81610  -1.83808
H    -0.53691  -2.86527  -0.52114
C    -1.83724  -0.24896  -2.07773
H    -1.99319   0.80367  -1.86136
H    -2.79292  -0.68253  -2.40315
H    -1.18852  -0.32057  -2.94459
C    -1.79570  -1.14788   1.48951
C    -2.34668  -1.94569   2.47973
C    -2.00464  -1.82809   3.81222
C    -1.08611  -0.87444   4.18639
C    -0.60977  -0.01645   3.21323
C    -1.05500  -0.05558   1.90081
H    -0.79994  -0.75549   5.22304
H    -0.01091   0.79457   3.60379
H    -3.11963  -2.67440   2.26148
H    -2.44025  -2.44468   4.58665
H    -0.99151   3.88304   0.82877
C    -2.36165  -1.06216   0.11059
H    -3.04899  -0.20829   0.06072
H    -3.03697  -1.91350  -0.05979
O     1.46821   0.57427  -1.90157
C     2.18923  -0.29473  -2.50230
O     2.15644  -1.45059  -2.11458
C     3.22069   0.19501  -3.49817
H     3.57357  -0.63236  -4.11122
H     4.08896   0.58151  -2.95917
H     2.87609   0.96957  -4.18274
38
autodE path point 6. E = none charge = 0 mult = 1 
Pd    0.16646   0.11331  -0.00401
O     1.61967   1.28494   0.94303
C     1.75621   2.45598   0.65740
O     0.72695   3.15144   0.22456
C     3.07922   3.15107   0.77182
H     2.99216   4.14504   1.21139
H     3.50305   3.25880  -0.22941
H     3.76853   2.55761   1.36415
N    -1.22191  -1.16597  -0.86291
C    -0.68051  -2.54031  -0.83497
H     0.25141  -2.56570  -1.39278
H    -1.39960  -3.23081  -1.29095
H    -0.49846  -2.85376   0.19023
C    -1.56194  -0.82678  -2.25105
H    -1.86685   0.21507  -2.32259
H    -2.38352  -1.46247  -2.59961
H    -0.69918  -0.98973  -2.88898
C    -2.01128  -1.01635   1.41790
C    -2.78296  -1.48668   2.46926
C    -2.32121  -1.35628   3.77186
C    -1.08820  -0.76668   4.00632
C    -0.31224  -0.30592   2.94786
C    -0.76472  -0.41954   1.63778
H    -0.72168  -0.67168   5.02103
H     0.65384   0.13570   3.16017
H    -3.74074  -1.95780   2.27836
H    -2.91691  -1.72208   4.59788
H     0.97454   4.04367  -0.03954
C    -2.43517  -1.08318  -0.01333
H    -2.96860  -0.17085  -0.29465
H    -3.10267  -1.92776  -0.22920
O     1.10359   0.86001  -1.71964
C     1.79438   0.11190  -2.49847
O     1.82136  -1.11101  -2.48674
C     2.64789   0.88406  -3.49786
H     3.03872   0.22927  -4.27327
H     3.49687   1.33877  -2.98210
H     2.08349   1.69470  -3.95893
