39
Generated by autodE on: 2023-07-17. 
Ir    0.51296  -0.77745   0.79334
C    -0.04876  -2.85258   1.38910
C     0.50253  -2.08789   2.48363
C     2.10654  -2.29901   0.88153
C     0.91748  -2.91175   0.36522
C     1.85242  -1.76746   2.17887
N    -1.05832  -0.08420  -0.48791
C    -2.45624  -0.03204   0.02374
C    -2.85903   1.34283   0.57185
H    -3.91202   1.29020   0.86904
H    -2.78521   2.11461  -0.19866
H    -2.25122   1.64140   1.43135
C    -3.46107  -0.51738  -1.02003
H    -2.47628  -0.74255   0.86040
H    -4.42335  -0.64297  -0.52979
H    -3.62057   0.20411  -1.82659
H    -3.17796  -1.48082  -1.45787
C    -0.79004   0.26853  -1.68698
C     0.54406   0.22476  -2.20683
H    -1.62874   0.56259  -2.34476
C     1.77594   0.30833  -1.65713
C     2.81167  -0.05149  -2.50180
S     0.71224   0.15432  -3.91667
C     2.39778  -0.04961  -3.80192
H     1.90112   0.76357  -0.67272
H     3.84148  -0.14921  -2.23899
H     3.02158  -0.05905  -4.69259
H    -1.01541  -3.35769   1.40392
H     0.00600  -1.94477   3.42936
H     2.57927  -1.31213   2.85055
O     1.96373   2.01138   0.50962
O     0.29051   1.07502   1.61206
C     1.07487   2.08406   1.31624
C     0.84058   3.38871   2.00598
H     0.84677   4.18835   1.26435
H     1.69843   3.59788   2.64044
H    -0.05644   3.49685   2.61183
H     3.02410  -2.16893   0.32969
H     0.80218  -3.43055  -0.57951
