30
Coordinates from ORCA-job 10_0_orca
  Lu  0.11751547000000      0.24317216000000     -0.15107380000000
  C   0.24228369000000      1.05540848000000      2.26906835000000
  C   1.18549069000000      0.01111391000000      2.16522615000000
  C   2.21633115000000      0.41492344000000      1.29755855000000
  C   1.93978150000000      1.73856047000000      0.89768110000000
  C   0.72824338000000      2.13255897000000      1.50806663000000
  H   2.57120732000000      2.35841071000000      0.27630676000000
  H   0.28862206000000      3.11749051000000      1.45698470000000
  H   -0.63385922000000      1.06854102000000      2.90028841000000
  H   1.18851431000000     -0.88982906000000      2.76098654000000
  H   3.08816173000000     -0.16309480000000      1.03058121000000
  C   1.06638252000000     -0.02070380000000     -2.55117399000000
  C   -0.26199308000000     -0.49390838000000     -2.60875483000000
  C   0.92915717000000     -1.90421839000000     -1.28797253000000
  C   1.80399454000000     -0.89346571000000     -1.72721102000000
  H   1.46392805000000      0.82995089000000     -3.08684841000000
  C   -0.35434664000000     -1.65085290000000     -1.81731102000000
  H   -1.04623800000000     -0.08770636000000     -3.22851170000000
  H   2.86017925000000     -0.82518750000000     -1.51400209000000
  H   1.24174050000000     -2.76859431000000     -0.71986242000000
  H   -1.23769620000000     -2.26641015000000     -1.72060755000000
  C   -2.22789886000000     -1.71549482000000      1.39826453000000
  H   -2.41844540000000     -1.47869958000000      2.43712244000000
  H   -2.97490865000000     -2.39420842000000      0.99400152000000
  H   -2.31387721000000     -0.80317973000000      0.81570959000000
  C   -1.90243887000000      1.69293872000000     -0.66827895000000
  H   -0.92612135000000     -2.16091988000000      1.28348277000000
  H   -1.55001508000000      2.51077696000000     -1.30740499000000
  H   -2.42955481000000      2.18391922000000      0.15451727000000
  H   -2.65414997000000      1.15870454000000     -1.25682790000000
