30
Coordinates from ORCA-job 10_1_orca
  Lu  0.06911370000000      0.29866932000000     -0.17504200000000
  C   0.27258411000000      1.05816643000000      2.29256438000000
  C   1.20224951000000     -0.00367426000000      2.17846639000000
  C   2.22562461000000      0.42440300000000      1.30403105000000
  C   1.93183716000000      1.74315116000000      0.90144263000000
  C   0.72985123000000      2.13652021000000      1.51392242000000
  H   2.55980549000000      2.36544122000000      0.27564316000000
  H   0.27475020000000      3.10562606000000      1.46174001000000
  H   -0.61751134000000      1.05687440000000      2.91846649000000
  H   1.20245019000000     -0.90422413000000      2.74885823000000
  H   3.09633723000000     -0.15389895000000      1.02356470000000
  C   1.05869340000000     -0.02328396000000     -2.55108966000000
  C   -0.26199733000000     -0.49754646000000     -2.61590249000000
  C   0.94884394000000     -1.91895398000000     -1.27870718000000
  C   1.80153741000000     -0.89266011000000     -1.73725531000000
  H   1.44995437000000      0.83110386000000     -3.08622867000000
  C   -0.34047899000000     -1.66675205000000     -1.83398523000000
  H   -1.05673284000000     -0.09577818000000     -3.21421145000000
  H   2.86142909000000     -0.81839934000000     -1.51741863000000
  H   1.24714160000000     -2.76834707000000     -0.71146506000000
  H   -1.22123135000000     -2.28834612000000     -1.72344300000000
  C   -2.08273254000000     -1.74086450000000      1.36998568000000
  H   -2.42775131000000     -1.47596852000000      2.44129768000000
  H   -2.96000466000000     -2.42517553000000      1.00632063000000
  H   -2.35294437000000     -0.78741222000000      0.80509644000000
  C   -1.85818780000000      1.66434350000000     -0.66235129000000
  H   -1.14020257000000     -2.07126557000000      1.28597493000000
  H   -1.53772877000000      2.51212474000000     -1.31136107000000
  H   -2.42880106000000      2.18446078000000      0.15240711000000
  H   -2.65036128000000      1.16405779000000     -1.26697784000000
