30
Coordinates from ORCA-job 10_7_orca
  Lu  0.06040699000000      0.37532740000000     -0.21274670000000
  C   0.29997810000000      1.04778219000000      2.32953581000000
  C   1.23180551000000     -0.00716808000000      2.18071774000000
  C   2.23808206000000      0.43593756000000      1.29921755000000
  C   1.92282082000000      1.74925030000000      0.89546414000000
  C   0.73148250000000      2.13501947000000      1.54960080000000
  H   2.53651620000000      2.38112603000000      0.26478244000000
  H   0.23608463000000      3.09030093000000      1.46627254000000
  H   -0.57559337000000      1.03324680000000      2.96394965000000
  H   1.22311669000000     -0.94609356000000      2.70850367000000
  H   3.11044235000000     -0.12808755000000      1.00804037000000
  C   1.04601523000000     -0.01911473000000     -2.54898148000000
  C   -0.26671227000000     -0.53032930000000     -2.62879063000000
  C   0.96152219000000     -1.91628984000000     -1.28041160000000
  C   1.80388457000000     -0.88314111000000     -1.73438002000000
  H   1.42439113000000      0.84338178000000     -3.08668614000000
  C   -0.32474994000000     -1.69128398000000     -1.83548519000000
  H   -1.08645630000000     -0.10594469000000     -3.18644092000000
  H   2.86101466000000     -0.79615065000000     -1.52356149000000
  H   1.25576509000000     -2.76081117000000     -0.68304800000000
  H   -1.17929538000000     -2.33868560000000     -1.72564993000000
  C   -2.25860990000000     -1.65623671000000      1.37335526000000
  H   -2.41391333000000     -1.46710630000000      2.44289976000000
  H   -2.88427704000000     -2.49038604000000      1.02284340000000
  H   -2.43526205000000     -0.74709334000000      0.77375737000000
  C   -1.84378733000000      1.66608941000000     -0.67663699000000
  H   -1.20977179000000     -2.01425945000000      1.25061185000000
  H   -1.50042325000000      2.49352548000000     -1.30934026000000
  H   -2.37911355000000      2.14792464000000      0.14548154000000
  H   -2.60776843000000      1.16591863000000     -1.27593154000000
