30
Coordinates from ORCA-job 10_8_orca
  Lu  0.09566554000000      0.36380850000000     -0.21158773000000
  C   0.29483113000000      1.04206962000000      2.32865243000000
  C   1.23405737000000     -0.00395881000000      2.17104180000000
  C   2.23615177000000      0.43706497000000      1.28971853000000
  C   1.92218681000000      1.75575142000000      0.89567102000000
  C   0.73000394000000      2.13247773000000      1.55500945000000
  H   2.52945657000000      2.38376941000000      0.25954740000000
  H   0.22718710000000      3.08630420000000      1.46819618000000
  H   -0.56732336000000      1.02750524000000      2.97734075000000
  H   1.22332944000000     -0.95453053000000      2.68920435000000
  H   3.11322070000000     -0.12169314000000      1.00251126000000
  C   1.04267568000000     -0.01769104000000     -2.55268600000000
  C   -0.26914016000000     -0.53287078000000     -2.62555550000000
  C   0.95844414000000     -1.90507315000000     -1.27953117000000
  C   1.80446802000000     -0.87414378000000     -1.72934670000000
  H   1.41801245000000      0.84602034000000     -3.08498876000000
  C   -0.32484078000000     -1.69137177000000     -1.82808652000000
  H   -1.09247471000000     -0.10906368000000     -3.18108964000000
  H   2.85951673000000     -0.78745330000000     -1.52255151000000
  H   1.25534363000000     -2.75125245000000     -0.67400734000000
  H   -1.17261577000000     -2.35143101000000     -1.72186647000000
  C   -2.29080599000000     -1.64689885000000      1.37397333000000
  H   -2.42455657000000     -1.45515173000000      2.44035415000000
  H   -2.88891130000000     -2.48961888000000      1.02428895000000
  H   -2.47253854000000     -0.74569423000000      0.77540750000000
  C   -1.83515608000000      1.66497378000000     -0.68244748000000
  H   -1.18534064000000     -2.00093652000000      1.23715033000000
  H   -1.48618949000000      2.50059790000000     -1.31726373000000
  H   -2.36334930000000      2.13866216000000      0.16064511000000
  H   -2.60332413000000      1.15421606000000     -1.28566402000000
