30
Coordinates from ORCA-job 10_9_orca
  Lu  0.10911259000000      0.35281450000000     -0.20887350000000
  C   0.29605133000000      1.03638948000000      2.32466534000000
  C   1.23142607000000     -0.00143447000000      2.16073174000000
  C   2.23375880000000      0.43938296000000      1.28604353000000
  C   1.92310189000000      1.75897729000000      0.89755641000000
  C   0.72500313000000      2.13469636000000      1.55441870000000
  H   2.52461162000000      2.38644703000000      0.25568453000000
  H   0.22343361000000      3.08239274000000      1.46985515000000
  H   -0.56516733000000      1.02398356000000      2.98364189000000
  H   1.22128858000000     -0.95949575000000      2.67530780000000
  H   3.11452699000000     -0.11843556000000      0.99763974000000
  C   1.04182455000000     -0.01542215000000     -2.55734521000000
  C   -0.27385115000000     -0.53297233000000     -2.62054129000000
  C   0.95608760000000     -1.89338737000000     -1.27788704000000
  C   1.80267064000000     -0.87250773000000     -1.72678326000000
  H   1.41350517000000      0.84762558000000     -3.08388002000000
  C   -0.32094566000000     -1.68788809000000     -1.82425374000000
  H   -1.09470978000000     -0.11059301000000     -3.17838827000000
  H   2.85875350000000     -0.78041608000000     -1.52078932000000
  H   1.25517844000000     -2.74452903000000     -0.66624874000000
  H   -1.17136747000000     -2.35646229000000     -1.71708345000000
  C   -2.28019458000000     -1.64742683000000      1.37013598000000
  H   -2.43428921000000     -1.44915886000000      2.42626216000000
  H   -2.89439133000000     -2.47691501000000      1.02921944000000
  H   -2.49617186000000     -0.75744103000000      0.78462380000000
  C   -1.82576365000000      1.66240975000000     -0.68656559000000
  H   -1.19005576000000     -1.98391668000000      1.23292708000000
  H   -1.48141694000000      2.50198958000000     -1.31880798000000
  H   -2.34798957000000      2.12872436000000      0.16505786000000
  H   -2.59528296000000      1.14986687000000     -1.28698165000000
