39
Coordinates from ORCA-job reaction-4-rct-pbeh3c-orca_opt
  Ir  0.42995327712690     -0.66891356742980      1.12225473786006
  C   0.10444241007508     -2.53885222674979      2.13499533189543
  C   1.42060316763321     -2.06418221508028      2.45386910748220
  C   1.28908993916729     -2.38845417795915      0.16247860938010
  C   0.02662431992189     -2.75054861664461      0.73854991148679
  C   2.13999621438936     -1.98978280399114      1.23274302916640
  N   -0.82800664785041      0.11305147952554     -0.34912225169547
  C   -2.26521784131016      0.30568538598314      0.01147879504649
  C   -2.69279594510198      1.75494422858267     -0.16923432614107
  H   -3.71439899411516      1.88051476677991      0.18791531110833
  H   -2.67482321855826      2.06810784298161     -1.21420752085589
  H   -2.06035552181861      2.43521204456194      0.39954794716970
  C   -3.16048211910600     -0.66546694348271     -0.74812411879540
  H   -2.34634872213861      0.06834414094358      1.06977883397014
  H   -4.17250889845305     -0.61140832597441     -0.34899083997731
  H   -3.22558864395698     -0.43959525865694     -1.81315793770244
  H   -2.82020034165235     -1.69559330616535     -0.63989103712284
  C   -0.51897397344797      0.30284049919555     -1.57797616346087
  C   0.76084468499940      0.18516805279045     -2.22626987621702
  H   -1.33557421489004      0.55841085729189     -2.25359582668031
  C   2.05407472304359      0.37421461567170     -1.79185422619228
  C   3.00270550954685      0.17450864532785     -2.81243553884162
  S   0.73699132240474     -0.20645249103702     -3.91286232841242
  C   2.42871268514308     -0.15815204555405     -4.00789239799659
  H   2.31775521413159      0.70999751237950     -0.80206030854764
  H   4.06762828252351      0.28918623380705     -2.67764412562909
  H   2.92828452348113     -0.37363196208886     -4.93968627215199
  H   -0.69878891349224     -2.69311308284100      2.84152354305360
  H   1.80189664426121     -1.84405201975174      3.43920449475717
  H   3.15479101270613     -1.63263367635005      1.12512875392311
  O   1.30280220749172      1.24980772887939      1.18625864496332
  O   -0.41543181142589      0.81583958380647      2.37041906327138
  C   0.43591294741086      1.67355200078760      2.00539592666966
  C   0.43678306287024      3.06883107565082      2.51418946051006
  H   0.73263929653289      3.76657252502964      1.73342256130136
  H   1.16649410142675      3.15595462953199      3.32142603076634
  H   -0.53742242342736      3.34200757311883      2.91148845441550
  H   1.56510062190642     -2.45834203644133     -0.87860367075222
  H   -0.83720793744876     -3.11358666642888      0.20156021897533
