39
Coordinates from ORCA-job reaction-4-prod-pbeh3c-orca_opt
  Ir  0.56842015505551     -0.80088283448373      0.38327100210351
  C   0.30054139352758     -2.89533497870007      0.67739086677830
  C   -0.15898937677907     -2.31979580381949      1.92186849799676
  C   2.06517162222451     -1.76715385608255      1.64206148372155
  C   1.69506142489844     -2.61519196940269      0.56375345748124
  C   0.90684131560708     -1.62792006144370      2.49107638677486
  N   -1.20025356795595     -0.24939964983084     -0.60786453061078
  C   -2.51762300569623     -0.32121019477508      0.03539004241290
  C   -2.58972166139020      0.64032864167834      1.21561795848612
  H   -3.55301556118812      0.53476963597110      1.71353142465608
  H   -2.49733401354391      1.67426196531175      0.88261222890428
  H   -1.81482741740946      0.44957738571136      1.95592387898954
  C   -3.68685819623596     -0.10246225339267     -0.91260845511044
  H   -2.58904226961459     -1.34270203087902      0.42096712279051
  H   -4.61409172492491     -0.29121956431791     -0.37401974894275
  H   -3.73978546847485      0.92401558876637     -1.27962583647832
  H   -3.66953729098872     -0.78061032428643     -1.76663130856905
  C   -1.04391766671590      0.16657074305774     -1.81532260643670
  C   0.28891929800539      0.13228468965228     -2.31312921906456
  H   -1.88068736105042      0.50155828123726     -2.41855130664209
  C   1.26199144924825     -0.34582506966374     -1.45786027510668
  C   2.52154035691063     -0.38425348233246     -2.10939477977635
  S   0.88420460541370      0.51605202090394     -3.87697893929924
  C   2.45369207643102      0.05488763108839     -3.40895915481063
  H   2.25778125432761      1.43350957253528     -0.77785442496910
  H   3.44399400041612     -0.72790616201291     -1.66170918059284
  H   3.26614924716258      0.11837748929578     -4.11713082844655
  H   -0.26766911735955     -3.54413287674432      0.02747427320152
  H   -1.15853396182160     -2.38900457748093      2.32365768762255
  H   0.86434205586835     -1.04029417524214      3.39674440629409
  O   2.22291147165421      2.25931218150357     -0.25816426158635
  O   0.62511765848768      1.25077864699297      0.94668643782905
  C   1.31866397714686      2.22998697972531      0.67217519476047
  C   1.17490517878500      3.50921597056603      1.42513231745894
  H   0.97687196388360      4.33101639014585      0.73720335110375
  H   2.10923245418281      3.74490637885003      1.93618716807934
  H   0.37444524052140      3.44205315263002      2.15451173998622
  H   3.05863233541121     -1.40716520165587      1.86167769900706
  H   2.34247712597988     -2.96101827907683     -0.22908976999622
