38
Coordinates from ORCA-job reaction-3-cineb10_optts_Compound_1
  C   -2.13625590891353     -0.28430714066401      0.78554516172668
  C   -1.92292049956188      1.04067731398756      1.22663677782911
  C   -3.39976392948402     -0.82446780170651      1.03947201480730
  C   -4.40722029771522     -0.12072115796872      1.69338427959906
  C   -4.17042863611635      1.17380767130709      2.12424995363491
  C   -2.92788217064851      1.74698359675468      1.88418818000622
  H   -0.39118782895678     -1.69854209688294     -2.89487746829632
  H   -3.61672135305669     -1.83494204068867      0.70810545194073
  H   -2.74239455982675      2.76600149628118      2.21251040839264
  H   -5.37417937634046     -0.58259052169993      1.86258403349578
  H   -4.94141516537851      1.73660436684048      2.63758136434805
  C   -0.61446432194108      1.76062116624916      0.94133656755243
  C   0.67894339213660      1.14748313661492      1.55485736942568
  H   -0.70238778705152      2.79147460055968      1.29651742874193
  H   -0.48770421546596      1.84559396321112     -0.14271285753356
  C   1.69031871729731      0.65147918809098      0.54203501161290
  H   0.41305597598016      0.34583031949000      2.24810946022673
  H   1.16948983249268      1.91212690642664      2.16395894216237
  C   1.50000619255556     -0.52715510253871     -0.20079823214149
  C   2.42220884571134     -0.92702541222988     -1.15675882257615
  C   3.53787620415408     -0.13823905047545     -1.42040537748830
  C   2.82382877030540      1.41094571611721      0.26796860783237
  C   3.74200300326366      1.02703825860105     -0.70236570035040
  H   2.25771883475982     -1.83992799618583     -1.71996596349716
  H   4.23673039356632     -0.44176859448744     -2.18964987043213
  H   2.98517798065371      2.33014762924441      0.82183530137879
  H   4.61181698054722      1.64338858679700     -0.89453674233452
  Pd  -0.34359003856023     -1.17235926476223      0.00097300154348
  Br  0.05878007934225     -3.87312977304310     -2.17795389022921
  P   0.76564443514596     -2.87686589707044      0.79906484086145
  H   -0.00368258654477     -4.02467652005178      1.02620393457690
  C   0.34817125111577      0.00187917638762     -3.37760518798501
  O   1.17580950699095     -0.35423049887010     -4.17350582438942
  O   -0.56176973994389     -0.72963436928837     -2.78302876729712
  O   0.20987468289513      1.27073653706792     -2.97191387336003
  H   1.25949623317989     -2.69065876676807      2.11227656459785
  H   1.91854283926745     -3.42598696338087      0.22544369575528
  H   0.92900426414490      1.77019933873433     -3.37088977413783
