38
Coordinates from ORCA-job reaction-3-cineb10_optts_Compound_2_IRC_B
  C   -1.88243683171446     -0.03684994413172      0.68187750029917
  C   -1.82135666507170      1.27714712111358      1.16312157280953
  C   -3.10046570469308     -0.71098277209078      0.84318772306547
  C   -4.18081170994602     -0.14623977025814      1.52251938158112
  C   -4.07498524915892      1.13280238190174      2.03914493555024
  C   -2.89762092753155      1.84039112699619      1.83900283547413
  H   -0.48080253335786     -1.65883982251494     -2.98037076271858
  H   -3.24344154972450     -1.71393962512052      0.44029467684226
  H   -2.80142434793360      2.84580472868284      2.23759050509541
  H   -5.10040728923077     -0.70683658724218      1.64772846230028
  H   -4.89402848919085      1.58080328612443      2.58996174348166
  C   -0.55901539024398      2.06478962722300      0.99731577539800
  C   0.64619185674190      1.39641941860202      1.69089061398710
  H   -0.70132620822212      3.07721868706386      1.38328183792033
  H   -0.34602145050052      2.16566958174302     -0.07002920195683
  C   1.56694080980973      0.79208049413486      0.67965873505470
  H   0.29148308983086      0.62858748698150      2.38115937907254
  H   1.18886741496956      2.12990068884061      2.29163251875801
  C   1.19745700485350     -0.35232731104536     -0.03134956731930
  C   2.05310386712683     -0.81447183247445     -1.03571372409878
  C   3.23720488019970     -0.14838113497149     -1.33918022558339
  C   2.75709925955703      1.44501853209979      0.36900783983355
  C   3.59781740464238      0.98616507180277     -0.63274326699994
  H   1.80895729534368     -1.70417366532344     -1.60702153567998
  H   3.87147382100873     -0.52873500160776     -2.13055749516997
  H   3.01892120896357      2.34136844778260      0.92172953590009
  H   4.51857128593512      1.51165679732395     -0.85711755763268
  Pd  -0.44338565588068     -1.42139140606551      0.34338300448081
  Br  -0.23289029751681     -3.88168448587033     -2.08135064856729
  P   0.99703185037824     -3.22907036008427      0.79442120854262
  H   0.43121675809277     -4.48697635476041      1.05280053919718
  C   0.31950195942880      0.00965110373216     -3.45794277648221
  O   1.23689652129325     -0.37404135373982     -4.13807673102366
  O   -0.66868341832065     -0.69300952090668     -2.97153430499402
  O   0.15357476994783      1.29109712017522     -3.10501907818741
  H   1.66333514412781     -3.08551062619045      2.03850941774507
  H   2.10894201985862     -3.61328467487273      0.03780310448962
  H   0.93571874920060      1.76242081872297     -3.40717681810387
