21
Coordinates from ORCA-job 0_0_orca
  C   -1.94850000000000      0.11390000000000     -0.11553000000000
  C   -1.51314000000000     -0.55355000000000     -1.25176000000000
  C   -0.65360000000000     -1.63698000000000     -1.13265000000000
  C   -0.22371000000000     -2.04826000000000      0.12095000000000
  C   -1.51877000000000     -0.29869000000000      1.13870000000000
  C   -0.65405000000000     -1.37730000000000      1.25696000000000
  H   -2.62392000000000      0.95412000000000     -0.20975000000000
  H   -1.84157000000000     -0.22938000000000     -2.23030000000000
  H   -0.32031000000000     -2.16033000000000     -2.01958000000000
  H   -0.30961000000000     -1.68955000000000      2.23377000000000
  H   0.45051000000000     -2.88926000000000      0.21625000000000
  Pd  1.43399000000000      1.27524000000000      0.00042000000000
  O   2.09476000000000      0.53096000000000     -1.76783000000000
  O   2.59801000000000     -0.39701000000000      0.11164000000000
  O   0.31132000000000      2.97233000000000     -0.11995000000000
  C   0.21519000000000      2.97032000000000      1.13364000000000
  O   0.79029000000000      2.05104000000000      1.76995000000000
  H   -1.85791000000000      0.21851000000000      2.02659000000000
  C   2.67984000000000     -0.39057000000000     -1.14227000000000
  H   3.24668000000000     -1.16254000000000     -1.67564000000000
  H   -0.35550000000000      3.74699000000000      1.65639000000000
