38
Coordinates from ORCA-job 1_1_orca
  Pd  0.68686816000000      0.58620016000000     -0.50887605000000
  O   2.27176697000000      1.58360973000000      0.33334132000000
  C   1.66831380000000      2.73323367000000      0.25863468000000
  O   0.49674057000000      2.74380838000000     -0.08648087000000
  C   2.46539573000000      3.98637916000000      0.55271509000000
  H   1.82952446000000      4.71896648000000      1.04311730000000
  H   2.80781408000000      4.41499615000000     -0.39116845000000
  H   3.34138726000000      3.78246404000000      1.16457288000000
  N   -1.18790628000000     -0.28908794000000     -1.16027060000000
  C   -1.23370986000000     -0.93109212000000     -2.48279132000000
  H   -0.95084241000000     -0.22959694000000     -3.25481683000000
  H   -2.25998814000000     -1.26510541000000     -2.70349974000000
  H   -0.58813633000000     -1.78622955000000     -2.54121236000000
  C   -2.09366227000000      0.85264025000000     -1.20580636000000
  H   -2.07241714000000      1.40575620000000     -0.28886357000000
  H   -3.12375363000000      0.52410181000000     -1.40996063000000
  H   -1.78948831000000      1.52695848000000     -2.00208203000000
  C   -1.46299015000000     -0.94318646000000      1.27866577000000
  C   -0.43725987000000     -1.62291557000000      1.98046918000000
  C   -0.30466848000000     -1.55456527000000      3.34583926000000
  C   -1.22023535000000     -0.87166239000000      4.07677312000000
  C   -2.31989912000000     -0.31035650000000      3.44917831000000
  C   -2.45770780000000     -0.17354653000000      2.07775605000000
  H   -1.09367301000000     -0.78319454000000      5.16118505000000
  H   -3.08941026000000      0.06184925000000      4.08655882000000
  H   0.27274145000000     -2.22808008000000      1.43851128000000
  H   0.49148680000000     -2.07365364000000      3.83830529000000
  H   -3.47316057000000      0.87732941000000      1.75001761000000
  C   -1.66042514000000     -1.28035759000000     -0.15831012000000
  H   -2.72684750000000     -1.46863312000000     -0.29200708000000
  H   -1.17306882000000     -2.22590700000000     -0.39207459000000
  O   1.71591608000000     -1.01695745000000     -1.06231773000000
  C   2.27835695000000     -0.83435820000000     -2.25058984000000
  O   1.96007103000000      0.00752792000000     -3.02483758000000
  C   3.39067303000000     -1.80385666000000     -2.58292174000000
  H   3.08898736000000     -2.82077310000000     -2.41728440000000
  H   4.27190920000000     -1.59775397000000     -1.98065182000000
  H   3.68255205000000     -1.69689564000000     -3.64131081000000
