38
Coordinates from ORCA-job 1_2_orca
  Pd  0.68053539000000      0.57842788000000     -0.51786796000000
  O   2.27538491000000      1.61752036000000      0.32512022000000
  C   1.69540379000000      2.73878007000000      0.26142597000000
  O   0.48807126000000      2.74426957000000     -0.08390497000000
  C   2.45530328000000      3.99910180000000      0.54992105000000
  H   1.81153426000000      4.72364300000000      1.04237395000000
  H   2.79393976000000      4.43101236000000     -0.39348200000000
  H   3.33295437000000      3.79989664000000      1.16027829000000
  N   -1.16768656000000     -0.27416049000000     -1.14622653000000
  C   -1.24107604000000     -0.88953894000000     -2.48952486000000
  H   -0.95615930000000     -0.18226697000000     -3.26304045000000
  H   -2.26046428000000     -1.22859766000000     -2.71891713000000
  H   -0.59128342000000     -1.74943424000000     -2.57321832000000
  C   -2.09100599000000      0.86555231000000     -1.19337538000000
  H   -2.05437740000000      1.41351963000000     -0.26533008000000
  H   -3.12221785000000      0.54631610000000     -1.38434834000000
  H   -1.79619180000000      1.56005059000000     -1.97661239000000
  C   -1.45137705000000     -0.94065691000000      1.28342159000000
  C   -0.41725710000000     -1.60078237000000      1.96073883000000
  C   -0.29151471000000     -1.54799342000000      3.33298724000000
  C   -1.21193464000000     -0.85198116000000      4.08001006000000
  C   -2.35014498000000     -0.37899085000000      3.44373806000000
  C   -2.41665512000000     -0.23430470000000      2.05718656000000
  H   -1.09206162000000     -0.79197487000000      5.15762974000000
  H   -3.11637855000000      0.00729197000000      4.09873882000000
  H   0.32043854000000     -2.19102988000000      1.43396499000000
  H   0.53211542000000     -2.03639768000000      3.82875073000000
  H   -3.61482721000000      0.82056209000000      1.73340975000000
  C   -1.63649216000000     -1.28161374000000     -0.16246559000000
  H   -2.70408212000000     -1.48662185000000     -0.30369398000000
  H   -1.13016449000000     -2.21464226000000     -0.41728314000000
  O   1.69916214000000     -1.01972682000000     -1.05628442000000
  C   2.27926021000000     -0.85852705000000     -2.21823586000000
  O   1.98609215000000     -0.00013260000000     -3.01733864000000
  C   3.37974825000000     -1.83655295000000     -2.57897480000000
  H   3.05393437000000     -2.85343791000000     -2.39021061000000
  H   4.26146439000000     -1.64166494000000     -1.97041199000000
  H   3.66837001000000     -1.75547523000000     -3.62965557000000
