38
Coordinates from ORCA-job 1_3_orca
  Pd  0.70293804000000      0.59241355000000     -0.48195901000000
  O   2.23245111000000      1.51154444000000      0.35882349000000
  C   1.64784191000000      2.68634455000000      0.26551689000000
  O   0.49247413000000      2.74585093000000     -0.10365432000000
  C   2.49421671000000      3.93769641000000      0.55986812000000
  H   1.89112749000000      4.70347703000000      1.04597200000000
  H   2.85558786000000      4.35959151000000     -0.38315681000000
  H   3.36917387000000      3.72076225000000      1.17876566000000
  N   -1.24060500000000     -0.34340262000000     -1.18972534000000
  C   -1.22387509000000     -1.06623708000000     -2.45496547000000
  H   -0.93032576000000     -0.39096614000000     -3.23054864000000
  H   -2.25497355000000     -1.39189511000000     -2.65317541000000
  H   -0.57343506000000     -1.91695974000000     -2.43081960000000
  C   -2.10978264000000      0.80099878000000     -1.26449516000000
  H   -2.13007968000000      1.38179775000000     -0.36464082000000
  H   -3.12730751000000      0.45070411000000     -1.49694452000000
  H   -1.76709823000000      1.41588203000000     -2.08860102000000
  C   -1.52398259000000     -0.92786973000000      1.30847319000000
  C   -0.52963429000000     -1.68608311000000      2.01923175000000
  C   -0.35239420000000     -1.59066951000000      3.38573224000000
  C   -1.24424741000000     -0.91493270000000      4.09068932000000
  C   -2.23302945000000     -0.09353398000000      3.46033032000000
  C   -2.53213665000000      0.01327931000000      2.10383857000000
  H   -1.09968357000000     -0.75619718000000      5.16597875000000
  H   -2.99485300000000      0.25633102000000      4.05842720000000
  H   0.10982763000000     -2.35715884000000      1.45753682000000
  H   0.35623072000000     -2.20256884000000      3.87666868000000
  H   -3.00577932000000      1.06544451000000      1.80562795000000
  C   -1.73821447000000     -1.27812256000000     -0.14182362000000
  H   -2.80889653000000     -1.40678636000000     -0.25203743000000
  H   -1.31950578000000     -2.26483717000000     -0.31115344000000
  O   1.77460080000000     -0.99466070000000     -1.09582262000000
  C   2.27576828000000     -0.78342174000000     -2.30862737000000
  O   1.86336080000000      0.05506198000000     -3.08176951000000
  C   3.43723780000000     -1.67869558000000     -2.61948518000000
  H   3.20473535000000     -2.71472108000000     -2.50873213000000
  H   4.30652880000000     -1.44588954000000     -2.01355100000000
  H   3.73024366000000     -1.49819425000000     -3.67384448000000
