38
Coordinates from ORCA-job 1_4_orca
  Pd  0.68648953000000      0.58214496000000     -0.50832415000000
  O   2.26397405000000      1.58935429000000      0.33407780000000
  C   1.68276289000000      2.72484386000000      0.26251324000000
  O   0.48924144000000      2.74468986000000     -0.08915392000000
  C   2.46564561000000      3.98278160000000      0.55256476000000
  H   1.83268839000000      4.71828333000000      1.04333023000000
  H   2.81032447000000      4.41203027000000     -0.39073779000000
  H   3.34258071000000      3.77886446000000      1.16519183000000
  N   -1.18706668000000     -0.29256352000000     -1.15778755000000
  C   -1.23650440000000     -0.93650142000000     -2.48033973000000
  H   -0.94929331000000     -0.23773462000000     -3.25440484000000
  H   -2.25900496000000     -1.27199853000000     -2.70144443000000
  H   -0.58653972000000     -1.79395884000000     -2.53537188000000
  C   -2.09599641000000      0.84839540000000     -1.21227746000000
  H   -2.07449740000000      1.40508865000000     -0.29172469000000
  H   -3.12357057000000      0.52090454000000     -1.41427393000000
  H   -1.78845937000000      1.52173376000000     -2.00637650000000
  C   -1.47067401000000     -0.93725836000000      1.29007975000000
  C   -0.44712448000000     -1.62345343000000      1.97628496000000
  C   -0.30769514000000     -1.55933579000000      3.34700570000000
  C   -1.22052266000000     -0.86871230000000      4.08284837000000
  C   -2.31901825000000     -0.30312270000000      3.44814792000000
  C   -2.44734757000000     -0.16850231000000      2.06958564000000
  H   -1.09408737000000     -0.78246595000000      5.15984872000000
  H   -3.08407973000000      0.07348107000000      4.08802488000000
  H   0.26446280000000     -2.23518330000000      1.44022986000000
  H   0.48536914000000     -2.08056232000000      3.84148627000000
  H   -3.45295568000000      0.88564645000000      1.75260376000000
  C   -1.66352771000000     -1.28068586000000     -0.15697941000000
  H   -2.73193948000000     -1.46540333000000     -0.28996480000000
  H   -1.18048724000000     -2.22798296000000     -0.38907620000000
  O   1.71921207000000     -1.01306480000000     -1.06679280000000
  C   2.27833214000000     -0.83856571000000     -2.24225994000000
  O   1.95347286000000      0.01453690000000     -3.03446295000000
  C   3.39502771000000     -1.79459793000000     -2.58974157000000
  H   3.09401395000000     -2.81657003000000     -2.42171102000000
  H   4.27344152000000     -1.58963215000000     -1.98187739000000
  H   3.68481467000000     -1.68709561000000     -3.64140001000000
