38
Coordinates from ORCA-job reaction-3-rct-pbeh3c-orca_opt
  C   -2.87863028062548     -0.59857265227764      0.46872426115936
  C   -2.26960828549986      0.46361813120691      1.13651148902211
  C   -4.07969195261660     -1.12257403372095      0.92225599123200
  C   -4.69739453952683     -0.59398953014195      2.04799936307724
  C   -4.10364073161045      0.46604967275894      2.71608903485608
  C   -2.89960041944114      0.98584424069798      2.26170102750036
  H   -2.41004633753377     -1.01181576408498     -0.41939242406703
  H   -4.53615763543020     -1.94534103585007      0.38680337887183
  H   -2.44076930415784      1.81550398878670      2.78813343640183
  H   -5.63656071660221     -1.00349816242067      2.39839774232357
  H   -4.57902437449385      0.89093511506489      3.59168979480312
  C   -0.93269261678360      0.97468386444082      0.68367241207957
  C   0.20456165340344      0.13015035007697      1.27881414302302
  H   -0.79686318011734      2.01616552987630      0.98683190525378
  H   -0.87268348371648      0.96127605146628     -0.40559798176275
  C   1.56183438758440      0.45179002412129      0.71120516959489
  H   -0.03473693259284     -0.92586841573272      1.12185480251063
  H   0.21053314789045      0.27098913505604      2.36456455056072
  C   1.95312918108942      0.02080022248442     -0.56541800030745
  C   3.22445664291745      0.36588017979688     -1.02288717500654
  C   4.09320006704351      1.11954955237153     -0.24382083100073
  C   2.43978209652647      1.21744689270200      1.47752599985455
  C   3.70153303183435      1.55217035028561      1.01322079941535
  H   3.53512384563595      0.05662822610695     -2.01337277601087
  H   5.07553965543044      1.37168951702780     -0.62621492613544
  H   2.12619671272429      1.55351216043552      2.46118137792374
  H   4.36985956836153      2.14350900028898      1.62735114108660
  Pd  0.73067155080280     -1.00675094441394     -1.76028186685191
  Br  -0.98566043697630     -2.45077912804787     -3.01574647201718
  P   1.02779849843222     -2.84278746268615     -0.56487316165793
  H   -0.07391199816970     -3.45508824376611      0.05493607201182
  C   1.26339550322746      0.73432870886542     -3.90575035025010
  O   2.16649219343818     -0.02512158924226     -4.22973807844296
  O   0.49841833206912      0.68275438193458     -2.89712163698211
  O   0.99269070460398      1.81445731622596     -4.69311485529454
  H   1.91027456965583     -2.86629075791593      0.53630922839102
  H   1.53337631022528     -3.96218557353287     -1.24396256202302
  H   1.60880557299795      1.75094068175535     -5.42848002314260
