21
Coordinates from ORCA-job 10_7_orca
  Sc  0.50357865000000     -0.32269797000000     -2.10511686000000
  C   0.19311442000000     -0.40693900000000      0.18491014000000
  N   -0.45353759000000     -1.32434059000000      0.93179298000000
  C   -0.55716992000000     -0.92175373000000      2.23192429000000
  C   0.05468009000000      0.28836517000000      2.31111419000000
  N   0.49681915000000      0.57573105000000      1.05455877000000
  C   1.24193660000000      1.77817851000000      0.73908581000000
  H   0.87815757000000      2.60015280000000      1.34906505000000
  H   1.09207921000000      2.04968383000000     -0.29951476000000
  H   2.30281070000000      1.64562759000000      0.93782085000000
  C   -0.97999335000000     -2.59752100000000      0.47331211000000
  H   -0.95226694000000     -2.64778510000000     -0.60933838000000
  H   -2.01531995000000     -2.70403825000000      0.79122014000000
  H   -0.39952921000000     -3.41856756000000      0.89093660000000
  H   -1.05342913000000     -1.49471098000000      2.99230548000000
  H   0.18930424000000      0.94430626000000      3.14999468000000
  C   0.16332997000000      1.58366968000000     -2.91165257000000
  H   -0.37146413000000      1.38217948000000     -3.86269436000000
  H   0.99803413000000      2.28313939000000     -3.07427505000000
  H   -0.57505478000000      2.00519412000000     -2.19975421000000
  H   -0.75698959000000     -1.29075986000000     -2.96530865000000
