21
Coordinates from ORCA-job 10_8_orca
  Sc  0.50753442000000     -0.33715007000000     -2.08928613000000
  C   0.19137641000000     -0.40643048000000      0.18971602000000
  N   -0.45644192000000     -1.32478356000000      0.93317706000000
  C   -0.55483068000000     -0.91845589000000      2.22864859000000
  C   0.05220569000000      0.28493037000000      2.30855736000000
  N   0.49706224000000      0.57757508000000      1.05721785000000
  C   1.24495692000000      1.77796198000000      0.73743891000000
  H   0.88084019000000      2.59815077000000      1.35057390000000
  H   1.09384426000000      2.05125302000000     -0.30042722000000
  H   2.30703519000000      1.64161047000000      0.93171236000000
  C   -0.98000285000000     -2.59825388000000      0.47121524000000
  H   -0.94786586000000     -2.65057074000000     -0.61145077000000
  H   -2.01597279000000     -2.70147775000000      0.78779102000000
  H   -0.40010990000000     -3.41813376000000      0.89188273000000
  H   -1.05493287000000     -1.49147192000000      2.98616184000000
  H   0.18566724000000      0.94591973000000      3.14432898000000
  C   0.16504669000000      1.58107773000000     -2.90489492000000
  H   -0.37285881000000      1.38789507000000     -3.86458625000000
  H   0.99323554000000      2.29420272000000     -3.07419830000000
  H   -0.58033258000000      2.01671658000000     -2.19833221000000
  H   -0.75600516000000     -1.30263438000000     -2.96416343000000
