38
Coordinates from ORCA-job 11_0_orca
  Pd  0.16646000000000      0.11331000000000     -0.00401000000000
  O   1.61967000000000      1.28494000000000      0.94303000000000
  C   1.75621000000000      2.45598000000000      0.65740000000000
  O   0.72695000000000      3.15144000000000      0.22456000000000
  C   3.07922000000000      3.15107000000000      0.77182000000000
  H   2.99216000000000      4.14504000000000      1.21139000000000
  H   3.50305000000000      3.25880000000000     -0.22941000000000
  H   3.76853000000000      2.55761000000000      1.36415000000000
  N   -1.22191000000000     -1.16597000000000     -0.86291000000000
  C   -0.68051000000000     -2.54031000000000     -0.83497000000000
  H   0.25141000000000     -2.56570000000000     -1.39278000000000
  H   -1.39960000000000     -3.23081000000000     -1.29095000000000
  H   -0.49846000000000     -2.85376000000000      0.19023000000000
  C   -1.56194000000000     -0.82678000000000     -2.25105000000000
  H   -1.86685000000000      0.21507000000000     -2.32259000000000
  H   -2.38352000000000     -1.46247000000000     -2.59961000000000
  H   -0.69918000000000     -0.98973000000000     -2.88898000000000
  C   -2.01128000000000     -1.01635000000000      1.41790000000000
  C   -2.78296000000000     -1.48668000000000      2.46926000000000
  C   -2.32121000000000     -1.35628000000000      3.77186000000000
  C   -1.08820000000000     -0.76668000000000      4.00632000000000
  C   -0.31224000000000     -0.30592000000000      2.94786000000000
  C   -0.76472000000000     -0.41954000000000      1.63778000000000
  H   -0.72168000000000     -0.67168000000000      5.02103000000000
  H   0.65384000000000      0.13570000000000      3.16017000000000
  H   -3.74074000000000     -1.95780000000000      2.27836000000000
  H   -2.91691000000000     -1.72208000000000      4.59788000000000
  H   0.97454000000000      4.04367000000000     -0.03954000000000
  C   -2.43517000000000     -1.08318000000000     -0.01333000000000
  H   -2.96860000000000     -0.17085000000000     -0.29465000000000
  H   -3.10267000000000     -1.92776000000000     -0.22920000000000
  O   1.10359000000000      0.86001000000000     -1.71964000000000
  C   1.79438000000000      0.11190000000000     -2.49847000000000
  O   1.82136000000000     -1.11101000000000     -2.48674000000000
  C   2.64789000000000      0.88406000000000     -3.49786000000000
  H   3.03872000000000      0.22927000000000     -4.27327000000000
  H   3.49687000000000      1.33877000000000     -2.98210000000000
  H   2.08349000000000      1.69470000000000     -3.95893000000000
