9
Generated by autodE on: 2023-07-19. 
Pt   -0.54534  -0.65332   0.41360
Cl    0.15311   0.00731   2.53197
Cl   -2.39576  -1.72723   1.33932
Cl   -1.19029  -1.28377  -1.73632
C     0.66215   0.84622  -0.50691
H     1.30711   1.36763   0.19610
H     0.92894  -0.63563  -0.01552
H     1.21956   0.58449  -1.40629
H    -0.14700   1.50947  -0.81689
