9
Coordinates from ORCA-job reaction-6-ieip_optts_Compound_2_IRC_F
  Pt  -0.81797346331354     -0.75395812439353      0.48038171812936
  Cl  -0.08674039202654      0.01079317196457      2.54557184113012
  Cl  -2.48409574840833     -1.94570891216634      1.40233448892877
  Cl  -1.36988159521316     -1.39606169691531     -1.68495130175197
  C   0.92302741313084      0.87456746506390     -0.58380894161294
  H   1.59384567017882      1.40814513572660      0.08083604473304
  H   0.93152208868050     -0.18128530406944     -0.22163385534404
  H   1.30193955601489      0.80295129509171     -1.59855279803461
  H   -0.03633288424759      1.38454267707998     -0.60781261817233
