9
Coordinates from ORCA-job reaction-6-ieip_optts_Compound_2_IRC_B
  Pt  -0.48969251246127     -0.64576175981682      0.37709749919363
  Cl  0.15876124485264      0.07228742767326      2.48886174168528
  Cl  -2.42470765205619     -1.66730990214026      1.30951440730663
  Cl  -1.10558701208006     -1.33547139542960     -1.75608745909800
  C   0.59208210592576      0.88667597765380     -0.48867843275668
  H   1.35051263656538      1.27906730122077      0.18807895019146
  H   0.93201779492465     -1.03162748134666      0.09827055502302
  H   1.05287639647817      0.60217377074215     -1.43449017270532
  H   -0.14662299053076      1.66648306039958     -0.68696393583305
