30
Coordinates from ORCA-job 4_1_orca
  Lu  0.04978347000000     -0.12009286000000      0.12424944000000
  C   0.46983752000000      0.70657234000000      2.55272617000000
  C   1.51682500000000     -0.18594169000000      2.24281110000000
  C   2.33956010000000      0.42211529000000      1.27574615000000
  C   1.77665414000000      1.66850485000000      0.94955880000000
  C   0.61898497000000      1.85539123000000      1.74514402000000
  H   2.16450022000000      2.38807645000000      0.23530847000000
  H   0.04018845000000      2.75065226000000      1.80951478000000
  H   -0.23985929000000      0.59072283000000      3.35919104000000
  H   1.67229795000000     -1.15245247000000      2.69866125000000
  H   3.25554075000000      0.01938057000000      0.88397941000000
  C   0.84092152000000     -0.09572956000000     -2.36884893000000
  C   -0.41106818000000     -0.76076885000000     -2.34691886000000
  C   1.09816100000000     -2.05877303000000     -1.23418665000000
  C   1.77037915000000     -0.91435767000000     -1.70241106000000
  H   1.03254896000000      0.84473406000000     -2.85347755000000
  C   -0.24897234000000     -1.97937497000000     -1.64526588000000
  H   -1.28824894000000     -0.47642388000000     -2.89984093000000
  H   2.82560527000000     -0.71095800000000     -1.58197450000000
  H   1.54564225000000     -2.88539724000000     -0.70685594000000
  H   -1.00009180000000     -2.73628223000000     -1.54096316000000
  C   -2.09234541000000     -1.53991904000000      1.19192018000000
  H   -2.28899152000000     -1.28332743000000      2.24401502000000
  H   -1.94956619000000     -2.64631599000000      1.19471864000000
  H   -3.04055197000000     -1.45837794000000      0.66809763000000
  C   -2.00668782000000      2.05033965000000     -0.93577086000000
  H   -2.45328972000000      0.60840239000000      0.26255751000000
  H   -1.01205170000000      2.58456197000000     -1.29970587000000
  H   -2.54821999000000      2.84127591000000     -0.49678819000000
  H   -2.43766112000000      1.67494261000000     -1.81215692000000
