30
Coordinates from ORCA-job 4_4_orca
  Lu  -0.04793176000000     -0.11528906000000      0.12944068000000
  C   0.46932616000000      0.74137515000000      2.54701371000000
  C   1.50189893000000     -0.17069307000000      2.24333296000000
  C   2.32669642000000      0.41115923000000      1.26276444000000
  C   1.79778859000000      1.67783925000000      0.94617289000000
  C   0.65314816000000      1.88335620000000      1.74507458000000
  H   2.21256637000000      2.38734778000000      0.24813029000000
  H   0.04863302000000      2.78102247000000      1.77551925000000
  H   -0.26449674000000      0.62236246000000      3.32493095000000
  H   1.63305528000000     -1.14397365000000      2.69218792000000
  H   3.25034665000000     -0.00334309000000      0.88440385000000
  C   0.86403059000000     -0.09529178000000     -2.38772439000000
  C   -0.38696508000000     -0.75558126000000     -2.38958652000000
  C   1.08699694000000     -2.04386361000000     -1.22720099000000
  C   1.77600276000000     -0.90371522000000     -1.68526728000000
  H   1.07791224000000      0.84360049000000     -2.88123828000000
  C   -0.24785838000000     -1.96078682000000     -1.68075681000000
  H   -1.27487483000000     -0.43711551000000     -2.91424843000000
  H   2.83304338000000     -0.71760963000000     -1.57414420000000
  H   1.52120172000000     -2.87477918000000     -0.68916542000000
  H   -1.01795283000000     -2.70129287000000     -1.53583163000000
  C   -2.11952049000000     -1.52962366000000      1.19398064000000
  H   -2.27399786000000     -1.30830275000000      2.25410928000000
  H   -1.92071963000000     -2.62216182000000      1.15979080000000
  H   -3.11763197000000     -1.46068592000000      0.73763721000000
  C   -1.98805990000000      1.96531462000000     -0.86992681000000
  H   -2.26878191000000      0.63632927000000      0.16349990000000
  H   -1.06109026000000      2.48397781000000     -1.22879592000000
  H   -2.57656688000000      2.78637716000000     -0.41805768000000
  H   -2.48585506000000      1.62596124000000     -1.79537900000000
