30
Coordinates from ORCA-job 4_5_orca
  Lu  -0.09739216000000     -0.08851841000000      0.11644972000000
  C   0.46458081000000      0.78004978000000      2.53046182000000
  C   1.47477464000000     -0.15842296000000      2.23482982000000
  C   2.31928241000000      0.40371648000000      1.25393557000000
  C   1.81815102000000      1.68041048000000      0.93765839000000
  C   0.67689020000000      1.92320423000000      1.73605985000000
  H   2.27509493000000      2.39134324000000      0.25869773000000
  H   0.07546832000000      2.81639628000000      1.73819589000000
  H   -0.29539617000000      0.66707639000000      3.28975711000000
  H   1.58319495000000     -1.13373274000000      2.68470755000000
  H   3.23797314000000     -0.03038904000000      0.88751013000000
  C   0.89150050000000     -0.08781541000000     -2.40633954000000
  C   -0.36453910000000     -0.73862951000000     -2.43377096000000
  C   1.07209335000000     -2.02811759000000     -1.22005646000000
  C   1.78073717000000     -0.89447563000000     -1.67496886000000
  H   1.13432519000000      0.83570861000000     -2.91466116000000
  C   -0.25053756000000     -1.93640864000000     -1.70613815000000
  H   -1.25145762000000     -0.39305642000000     -2.94347716000000
  H   2.84385194000000     -0.72638861000000     -1.56103161000000
  H   1.48897280000000     -2.85805150000000     -0.66707619000000
  H   -1.03700593000000     -2.65548561000000     -1.53963645000000
  C   -2.17184069000000     -1.51552025000000      1.19173143000000
  H   -2.25161243000000     -1.33810007000000      2.27902904000000
  H   -1.90084821000000     -2.58750597000000      1.11218731000000
  H   -3.21290762000000     -1.47069698000000      0.82435272000000
  C   -2.01955661000000      1.85971594000000     -0.80736411000000
  H   -2.10023171000000      0.62931640000000      0.08056529000000
  H   -1.09429953000000      2.39610922000000     -1.17208802000000
  H   -2.57296758000000      2.67580609000000     -0.34102049000000
  H   -2.51463809000000      1.58491748000000     -1.72574552000000
