38
Coordinates from ORCA-job 1_11_orca
  Pd  0.75680125000000      0.61830619000000     -0.57058109000000
  O   2.32354336000000      1.62824368000000      0.16336674000000
  C   1.67362090000000      2.70546049000000      0.22022493000000
  O   0.43760418000000      2.64518162000000     -0.05718376000000
  C   2.39262677000000      3.98523970000000      0.53412800000000
  H   1.75308937000000      4.71814521000000      1.02404988000000
  H   2.73862824000000      4.44668231000000     -0.39557259000000
  H   3.28065512000000      3.81875880000000      1.15019995000000
  N   -1.16771829000000     -0.17966327000000     -1.14334901000000
  C   -1.22126146000000     -0.76814288000000     -2.51643646000000
  H   -0.91471486000000     -0.01203135000000     -3.24506150000000
  H   -2.26110533000000     -1.07148427000000     -2.72251915000000
  H   -0.55118654000000     -1.63206828000000     -2.60227524000000
  C   -2.11865814000000      0.94239032000000     -1.10579972000000
  H   -2.08623750000000      1.41058283000000     -0.11814355000000
  H   -3.14152988000000      0.57837570000000     -1.30178505000000
  H   -1.82855748000000      1.65656222000000     -1.87849941000000
  C   -1.51528623000000     -1.02730243000000      1.28422448000000
  C   -0.39735697000000     -1.54212041000000      1.93732227000000
  C   -0.24736521000000     -1.43322812000000      3.28354250000000
  C   -1.26111422000000     -0.91490641000000      4.07660648000000
  C   -2.38344634000000     -0.38347236000000      3.48708588000000
  C   -2.46021515000000     -0.50424772000000      2.10939830000000
  H   -1.18384389000000     -0.81439880000000      5.09300355000000
  H   -3.27082418000000     -0.08731105000000      4.02606791000000
  H   0.32385465000000     -2.03094649000000      1.34594258000000
  H   0.62215211000000     -1.88606314000000      3.79012692000000
  H   -3.01792295000000      0.44041608000000      1.70339784000000
  C   -1.63318089000000     -1.22872642000000     -0.19403564000000
  H   -2.66966451000000     -1.49079302000000     -0.44615451000000
  H   -1.04285606000000     -2.10989396000000     -0.39773366000000
  O   1.67987423000000     -1.04630775000000     -1.08599695000000
  C   2.24549384000000     -0.90022268000000     -2.24810272000000
  O   1.96725829000000     -0.01879093000000     -3.03453446000000
  C   3.33000049000000     -1.94340640000000     -2.50023093000000
  H   3.00778214000000     -2.96879083000000     -2.26718558000000
  H   4.20874979000000     -1.73888681000000     -1.87246147000000
  H   3.62394308000000     -1.88316059000000     -3.54296263000000
