38
Coordinates from ORCA-job 1_13_orca
  Pd  0.74192890000000      0.61513440000000     -0.57342396000000
  O   2.32738799000000      1.63312831000000      0.16330968000000
  C   1.67744854000000      2.70652988000000      0.22030619000000
  O   0.44157083000000      2.64743213000000     -0.05594607000000
  C   2.39155571000000      3.98838228000000      0.53316207000000
  H   1.75065171000000      4.71700712000000      1.02381502000000
  H   2.73720978000000      4.44622795000000     -0.39660539000000
  H   3.27757135000000      3.81823088000000      1.14828860000000
  N   -1.16535614000000     -0.18234575000000     -1.13956488000000
  C   -1.22173265000000     -0.76132230000000     -2.50983472000000
  H   -0.91524351000000     -0.01100037000000     -3.24096458000000
  H   -2.25548938000000     -1.06999606000000     -2.72502993000000
  H   -0.55510269000000     -1.62478713000000     -2.60178290000000
  C   -2.11613807000000      0.93918852000000     -1.10373024000000
  H   -2.08880700000000      1.41089556000000     -0.11911717000000
  H   -3.13777261000000      0.58071767000000     -1.30061467000000
  H   -1.83219958000000      1.65934184000000     -1.87059433000000
  C   -1.50150102000000     -1.02608525000000      1.29524412000000
  C   -0.40789293000000     -1.53912156000000      1.92484054000000
  C   -0.23577134000000     -1.44813316000000      3.30839463000000
  C   -1.26975265000000     -0.90597206000000      4.05498199000000
  C   -2.38018741000000     -0.40973456000000      3.46930121000000
  C   -2.48832119000000     -0.42744276000000      2.08751300000000
  H   -1.17613789000000     -0.81884016000000      5.12862527000000
  H   -3.26414891000000     -0.07617902000000      4.02974763000000
  H   0.34426177000000     -2.03969511000000      1.34151674000000
  H   0.61682756000000     -1.87796537000000      3.78492488000000
  H   -3.02405111000000      0.38529455000000      1.70364347000000
  C   -1.62911670000000     -1.23492554000000     -0.20105099000000
  H   -2.66720347000000     -1.49054097000000     -0.44525001000000
  H   -1.03826347000000     -2.11538462000000     -0.40624145000000
  O   1.67817387000000     -1.04449955000000     -1.08342486000000
  C   2.24765972000000     -0.90999856000000     -2.23612351000000
  O   1.97150422000000     -0.02116715000000     -3.04006359000000
  C   3.32684029000000     -1.94210306000000     -2.50299094000000
  H   3.00349720000000     -2.96390880000000     -2.26707791000000
  H   4.20343802000000     -1.74096208000000     -1.87388538000000
  H   3.62521005000000     -1.88818050000000     -3.54292794000000
