38
Coordinates from ORCA-job 1_15_orca
  Pd  0.71483539000000      0.60257489000000     -0.57783142000000
  O   2.33053377000000      1.62644206000000      0.16335395000000
  C   1.67646667000000      2.70238987000000      0.22417087000000
  O   0.44351783000000      2.64169832000000     -0.04722435000000
  C   2.39344444000000      3.97992175000000      0.53529427000000
  H   1.75707118000000      4.70945048000000      1.02557614000000
  H   2.74312845000000      4.42902510000000     -0.39502802000000
  H   3.27486147000000      3.79878969000000      1.14850761000000
  N   -1.16774948000000     -0.19493480000000     -1.13571204000000
  C   -1.22048347000000     -0.78118241000000     -2.49668413000000
  H   -0.91288065000000     -0.04887743000000     -3.24134335000000
  H   -2.24815031000000     -1.09834272000000     -2.72296850000000
  H   -0.56222962000000     -1.64433210000000     -2.58279577000000
  C   -2.11496415000000      0.92751064000000     -1.11945944000000
  H   -2.09861242000000      1.41445284000000     -0.14700890000000
  H   -3.13629644000000      0.57508390000000     -1.31730284000000
  H   -1.83813678000000      1.64638006000000     -1.88933394000000
  C   -1.51053646000000     -1.00658225000000      1.29861651000000
  C   -0.41037089000000     -1.56328334000000      1.93829180000000
  C   -0.25987768000000     -1.47210818000000      3.31072733000000
  C   -1.25733077000000     -0.90724289000000      4.08114191000000
  C   -2.40362523000000     -0.41401535000000      3.46239087000000
  C   -2.42954399000000     -0.34425115000000      2.09111484000000
  H   -1.17300450000000     -0.82866822000000      5.15859369000000
  H   -3.24176314000000     -0.02533785000000      4.03966181000000
  H   0.33231653000000     -2.06554311000000      1.33454456000000
  H   0.60775113000000     -1.89149568000000      3.78432887000000
  H   -3.01914774000000      0.43402024000000      1.68786711000000
  C   -1.63864178000000     -1.23883564000000     -0.19275840000000
  H   -2.68331000000000     -1.47898165000000     -0.44072560000000
  H   -1.05503262000000     -2.12563190000000     -0.40018780000000
  O   1.67710101000000     -1.04373298000000     -1.08268445000000
  C   2.24756982000000     -0.89732459000000     -2.24344810000000
  O   1.96678047000000     -0.02748902000000     -3.04005809000000
  C   3.33676283000000     -1.91504543000000     -2.51456396000000
  H   3.02605876000000     -2.93523416000000     -2.28192152000000
  H   4.20569947000000     -1.70870574000000     -1.88404390000000
  H   3.64116359000000     -1.85883335000000     -3.55434931000000
