38
Coordinates from ORCA-job 1_16_orca
  Pd  0.69855571000000      0.58834839000000     -0.57611589000000
  O   2.32521377000000      1.60324354000000      0.16143427000000
  C   1.66852319000000      2.68423499000000      0.22983016000000
  O   0.43667646000000      2.63039758000000     -0.03214024000000
  C   2.39926674000000      3.95966894000000      0.54117703000000
  H   1.77258021000000      4.69735628000000      1.02996349000000
  H   2.75730047000000      4.39643892000000     -0.39137365000000
  H   3.27558840000000      3.76126634000000      1.15295663000000
  N   -1.18002530000000     -0.21370687000000     -1.14026616000000
  C   -1.21864247000000     -0.83225879000000     -2.48402691000000
  H   -0.90720540000000     -0.12445275000000     -3.24661679000000
  H   -2.24209486000000     -1.15597631000000     -2.71329104000000
  H   -0.56838143000000     -1.69602275000000     -2.54530093000000
  C   -2.11957862000000      0.91134625000000     -1.15439231000000
  H   -2.11361893000000      1.42178333000000     -0.19925275000000
  H   -3.13835066000000      0.55911847000000     -1.35231895000000
  H   -1.84275047000000      1.61469968000000     -1.93811582000000
  C   -1.50917667000000     -0.98543339000000      1.30401937000000
  C   -0.43674473000000     -1.60243109000000      1.94925326000000
  C   -0.29123310000000     -1.50449172000000      3.31741169000000
  C   -1.27123514000000     -0.91386833000000      4.11498727000000
  C   -2.39776192000000     -0.38761473000000      3.48967691000000
  C   -2.36903617000000     -0.24964622000000      2.10788575000000
  H   -1.17233018000000     -0.84144607000000      5.18503045000000
  H   -3.21279210000000      0.05773531000000      4.05338999000000
  H   0.28704689000000     -2.11011808000000      1.32861216000000
  H   0.58771006000000     -1.92716021000000      3.78477715000000
  H   -2.94546959000000      0.57434516000000      1.68529365000000
  C   -1.66712815000000     -1.23486624000000     -0.17003915000000
  H   -2.71501924000000     -1.45595299000000     -0.42985948000000
  H   -1.09498238000000     -2.13949026000000     -0.37565853000000
  O   1.67741615000000     -1.04475620000000     -1.09051744000000
  C   2.24894152000000     -0.88062965000000     -2.25313673000000
  O   1.94336398000000     -0.01314458000000     -3.05172291000000
  C   3.36252715000000     -1.86361162000000     -2.53449449000000
  H   3.07619713000000     -2.88769662000000     -2.31136354000000
  H   4.21968923000000     -1.64084616000000     -1.90122924000000
  H   3.67032574000000     -1.79244172000000     -3.57590218000000
