38
Coordinates from ORCA-job 1_18_orca
  Pd  0.68429439000000      0.56657814000000     -0.56454327000000
  O   2.30197888000000      1.55102246000000      0.14877728000000
  C   1.65419177000000      2.64279838000000      0.23913709000000
  O   0.41758763000000      2.61036582000000      0.00250737000000
  C   2.40833376000000      3.91147006000000      0.55010082000000
  H   1.79983837000000      4.67179911000000      1.03928498000000
  H   2.78559710000000      4.32902897000000     -0.38704349000000
  H   3.27727571000000      3.68242671000000      1.16396809000000
  N   -1.20718017000000     -0.25120576000000     -1.14982468000000
  C   -1.21869221000000     -0.93666865000000     -2.45918269000000
  H   -0.89137422000000     -0.27503618000000     -3.25178419000000
  H   -2.23075403000000     -1.27579011000000     -2.69124877000000
  H   -0.57389740000000     -1.80614968000000     -2.46037157000000
  C   -2.13484866000000      0.88009176000000     -1.22922255000000
  H   -2.14607869000000      1.43990044000000     -0.30284186000000
  H   -3.14505621000000      0.52141602000000     -1.42746532000000
  H   -1.84972906000000      1.54920663000000     -2.03468179000000
  C   -1.48289838000000     -0.92379610000000      1.32947411000000
  C   -0.49909292000000     -1.67660885000000      1.97516384000000
  C   -0.35273075000000     -1.57294759000000      3.35417966000000
  C   -1.29689639000000     -0.95223416000000      4.15880012000000
  C   -2.34671636000000     -0.27680338000000      3.53086726000000
  C   -2.27484532000000     -0.05031656000000      2.12734457000000
  H   -1.17584467000000     -0.88170711000000      5.23873137000000
  H   -3.13267409000000      0.23847868000000      4.07798294000000
  H   0.19224344000000     -2.21312486000000      1.33248906000000
  H   0.54066668000000     -2.00364008000000      3.78987824000000
  H   -2.82798948000000      0.81838361000000      1.67353884000000
  C   -1.71250655000000     -1.22729146000000     -0.13941614000000
  H   -2.77247881000000     -1.40667531000000     -0.39290038000000
  H   -1.18368827000000     -2.16623464000000     -0.32818340000000
  O   1.67678064000000     -1.04925085000000     -1.11391042000000
  C   2.24388160000000     -0.83950009000000     -2.27855273000000
  O   1.89620549000000      0.00844277000000     -3.06827906000000
  C   3.41544765000000     -1.75591882000000     -2.57857658000000
  H   3.17517908000000     -2.79301123000000     -2.37284541000000
  H   4.25168273000000     -1.49627530000000     -1.93406080000000
  H   3.72890031000000     -1.65227692000000     -3.61748283000000
