38
Coordinates from ORCA-job 1_20_orca
  Pd  0.68759310000000      0.56459979000000     -0.56131533000000
  O   2.29137487000000      1.54805651000000      0.14101658000000
  C   1.65409388000000      2.63811890000000      0.23927472000000
  O   0.41476963000000      2.60792743000000      0.00992392000000
  C   2.40743128000000      3.90087131000000      0.54866326000000
  H   1.79997514000000      4.66407384000000      1.03798003000000
  H   2.78658989000000      4.32070366000000     -0.38755465000000
  H   3.27600953000000      3.67339453000000      1.16585809000000
  N   -1.20592568000000     -0.25352913000000     -1.15064550000000
  C   -1.21880046000000     -0.94738127000000     -2.45553193000000
  H   -0.88534991000000     -0.28602270000000     -3.24735251000000
  H   -2.23259306000000     -1.28951977000000     -2.68751543000000
  H   -0.56914754000000     -1.81756888000000     -2.44359844000000
  C   -2.13925482000000      0.87657312000000     -1.23711670000000
  H   -2.15095625000000      1.44277443000000     -0.31132127000000
  H   -3.15065765000000      0.51305522000000     -1.43883306000000
  H   -1.84720332000000      1.54317706000000     -2.04292119000000
  C   -1.48137175000000     -0.89840768000000      1.33815626000000
  C   -0.51636932000000     -1.66487644000000      1.98021143000000
  C   -0.35195806000000     -1.59036972000000      3.36302894000000
  C   -1.30999528000000     -0.95301087000000      4.14691873000000
  C   -2.30833156000000     -0.21776054000000      3.50553083000000
  C   -2.27581057000000     -0.04082181000000      2.12288071000000
  H   -1.18498849000000     -0.90140430000000      5.23402526000000
  H   -3.09821831000000      0.26800569000000      4.07956529000000
  H   0.17694319000000     -2.23320525000000      1.35243901000000
  H   0.53124120000000     -2.01999536000000      3.79997279000000
  H   -2.83164922000000      0.78804190000000      1.67418700000000
  C   -1.70390567000000     -1.21880321000000     -0.13843123000000
  H   -2.76966282000000     -1.39923453000000     -0.37181491000000
  H   -1.19648342000000     -2.16787972000000     -0.32679081000000
  O   1.67744492000000     -1.05071463000000     -1.12349378000000
  C   2.24118431000000     -0.83993893000000     -2.27980400000000
  O   1.88888323000000      0.01304555000000     -3.07124903000000
  C   3.41830397000000     -1.74214452000000     -2.58247940000000
  H   3.18284987000000     -2.78482940000000     -2.38059056000000
  H   4.25624996000000     -1.47722986000000     -1.93587875000000
  H   3.73285573000000     -1.63400375000000     -3.61920241000000
