38
Coordinates from ORCA-job 1_21_orca
  Pd  0.68042130000000      0.55681529000000     -0.56208582000000
  O   2.28513462000000      1.54382749000000      0.13363946000000
  C   1.65086556000000      2.63383346000000      0.24087390000000
  O   0.41170265000000      2.60141312000000      0.01996917000000
  C   2.40819401000000      3.88825742000000      0.54862381000000
  H   1.80280410000000      4.65162013000000      1.03561433000000
  H   2.78869362000000      4.30718857000000     -0.38631482000000
  H   3.27399929000000      3.65957409000000      1.16796781000000
  N   -1.20323659000000     -0.25687109000000     -1.15061752000000
  C   -1.21757722000000     -0.96536360000000     -2.44918933000000
  H   -0.87792346000000     -0.30717807000000     -3.24424700000000
  H   -2.23391720000000     -1.31068171000000     -2.68217351000000
  H   -0.56502144000000     -1.83477934000000     -2.42118427000000
  C   -2.14339846000000      0.87047377000000     -1.24998250000000
  H   -2.15775024000000      1.44586478000000     -0.32720486000000
  H   -3.15687605000000      0.50299852000000     -1.45508531000000
  H   -1.84472135000000      1.53342492000000     -2.05897284000000
  C   -1.48275563000000     -0.87905348000000      1.33945960000000
  C   -0.52835218000000     -1.65718739000000      1.98694509000000
  C   -0.36483846000000     -1.60841026000000      3.36878142000000
  C   -1.31390915000000     -0.94667923000000      4.13671378000000
  C   -2.27216916000000     -0.16215107000000      3.49385107000000
  C   -2.26845129000000     -0.02056168000000      2.11660338000000
  H   -1.19977191000000     -0.92323896000000      5.22737269000000
  H   -3.05567338000000      0.31218159000000      4.08150158000000
  H   0.14923474000000     -2.25597273000000      1.37585908000000
  H   0.51769444000000     -2.04636741000000      3.81266682000000
  H   -2.82179007000000      0.77345129000000      1.67635062000000
  C   -1.70111302000000     -1.20746977000000     -0.13050038000000
  H   -2.76930533000000     -1.38722584000000     -0.34617848000000
  H   -1.21409453000000     -2.16804184000000     -0.32009474000000
  O   1.67822485000000     -1.05297070000000     -1.13230127000000
  C   2.23857792000000     -0.83518912000000     -2.28711720000000
  O   1.87847465000000      0.01929321000000     -3.07467110000000
  C   3.42494840000000     -1.72264957000000     -2.58765699000000
  H   3.19858345000000     -2.77003660000000     -2.39247586000000
  H   4.26160761000000     -1.44929577000000     -1.94033971000000
  H   3.73980512000000     -1.60615120000000     -3.62309206000000
