38
Coordinates from ORCA-job 1_24_orca
  Pd  0.67297666000000      0.55277335000000     -0.56911946000000
  O   2.29041942000000      1.54344455000000      0.11871351000000
  C   1.64476156000000      2.62690039000000      0.23823942000000
  O   0.40208156000000      2.59373796000000      0.03145858000000
  C   2.40705875000000      3.88201990000000      0.54710813000000
  H   1.79431439000000      4.63664915000000      1.03016764000000
  H   2.78445319000000      4.30029811000000     -0.38751280000000
  H   3.26997088000000      3.65416462000000      1.16969434000000
  N   -1.20295293000000     -0.24858627000000     -1.15017302000000
  C   -1.21224334000000     -0.96645723000000     -2.44329587000000
  H   -0.86839376000000     -0.30873436000000     -3.23468229000000
  H   -2.22858753000000     -1.31176460000000     -2.67372643000000
  H   -0.55659148000000     -1.83159061000000     -2.40227919000000
  C   -2.14532464000000      0.87283986000000     -1.25402979000000
  H   -2.16321955000000      1.44487772000000     -0.33154888000000
  H   -3.15475981000000      0.49880882000000     -1.46312498000000
  H   -1.84023501000000      1.53362821000000     -2.06024302000000
  C   -1.46535365000000     -0.89397961000000      1.32792948000000
  C   -0.51044481000000     -1.64112876000000      1.99154132000000
  C   -0.36813959000000     -1.60811239000000      3.36654426000000
  C   -1.28632615000000     -0.91043036000000      4.12500264000000
  C   -2.22990618000000     -0.13201312000000      3.49687919000000
  C   -2.26015059000000     -0.03917527000000      2.10558099000000
  H   -1.23745817000000     -0.94881281000000      5.19768846000000
  H   -2.99093351000000      0.37335114000000      4.07570424000000
  H   0.13025886000000     -2.27048741000000      1.41083081000000
  H   0.48168777000000     -2.08528767000000      3.83079088000000
  H   -2.89615615000000      0.71254266000000      1.64733133000000
  C   -1.69309558000000     -1.20027780000000     -0.12485176000000
  H   -2.75664373000000     -1.37128695000000     -0.30849155000000
  H   -1.21338077000000     -2.15565953000000     -0.31783354000000
  O   1.67190575000000     -1.05833000000000     -1.13818525000000
  C   2.23380795000000     -0.83102556000000     -2.29470834000000
  O   1.87376917000000      0.02365855000000     -3.07890166000000
  C   3.42526166000000     -1.71965261000000     -2.58683348000000
  H   3.20248455000000     -2.76738658000000     -2.39667848000000
  H   4.25691500000000     -1.43864131000000     -1.93966275000000
  H   3.73640139000000     -1.59400585000000     -3.61971424000000
