38
Coordinates from ORCA-job 1_30_orca
  Pd  0.66365219000000      0.54432547000000     -0.57868169000000
  O   2.29646321000000      1.52703427000000      0.05719378000000
  C   1.64215146000000      2.59432426000000      0.23313063000000
  O   0.39243719000000      2.53911941000000      0.07471325000000
  C   2.38399932000000      3.85479394000000      0.54661609000000
  H   1.76187847000000      4.60501704000000      1.02604385000000
  H   2.77144276000000      4.26991679000000     -0.38475440000000
  H   3.24436126000000      3.62858041000000      1.17140874000000
  N   -1.20209569000000     -0.24238178000000     -1.13282923000000
  C   -1.18946345000000     -0.97293596000000     -2.41845930000000
  H   -0.83815761000000     -0.33592054000000     -3.22639388000000
  H   -2.20103110000000     -1.32634003000000     -2.65199788000000
  H   -0.53282262000000     -1.83531403000000     -2.35113887000000
  C   -2.14134272000000      0.88273267000000     -1.26883563000000
  H   -2.18264815000000      1.46700497000000     -0.35237284000000
  H   -3.14653782000000      0.50574916000000     -1.49549230000000
  H   -1.83270581000000      1.53659337000000     -2.08462946000000
  C   -1.43556446000000     -0.87927326000000      1.34292104000000
  C   -0.47166239000000     -1.65028437000000      1.99499417000000
  C   -0.35282680000000     -1.61003260000000      3.38406825000000
  C   -1.26699163000000     -0.85586820000000      4.12619418000000
  C   -2.18241166000000     -0.03637704000000      3.47719193000000
  C   -2.26218799000000     -0.03366778000000      2.09322298000000
  H   -1.27189830000000     -0.94369153000000      5.20989310000000
  H   -2.85588543000000      0.57965491000000      4.06307648000000
  H   0.15761759000000     -2.33621411000000      1.41882348000000
  H   0.38636468000000     -2.23673245000000      3.87240032000000
  H   -3.01505752000000      0.57173009000000      1.60396333000000
  C   -1.69670277000000     -1.19759451000000     -0.10415047000000
  H   -2.77746970000000     -1.33445833000000     -0.26285361000000
  H   -1.20810837000000     -2.15010461000000     -0.32096303000000
  O   1.63159216000000     -1.07054602000000     -1.17341999000000
  C   2.21529643000000     -0.82716528000000     -2.31469691000000
  O   1.86622854000000      0.03669367000000     -3.09148677000000
  C   3.42541332000000     -1.69300584000000     -2.59873334000000
  H   3.23172883000000     -2.74641346000000     -2.40815737000000
  H   4.24236016000000     -1.39753604000000     -1.93809645000000
  H   3.74777219000000     -1.55875828000000     -3.62887291000000
