38
Coordinates from ORCA-job 1_4_orca
  Pd  0.78480153000000      0.66940073000000     -0.56223224000000
  O   2.35153059000000      1.65785902000000      0.15066516000000
  C   1.68293036000000      2.75033580000000      0.19671148000000
  O   0.45625662000000      2.69677933000000     -0.08358647000000
  C   2.37774421000000      4.05507431000000      0.51830287000000
  H   1.69610052000000      4.74407300000000      1.01514207000000
  H   2.69837939000000      4.52274126000000     -0.41723927000000
  H   3.26510107000000      3.90305938000000      1.13260319000000
  N   -1.15449060000000     -0.13339985000000     -1.14461988000000
  C   -1.21725845000000     -0.62535904000000     -2.53133596000000
  H   -0.92866016000000      0.17570312000000     -3.19840735000000
  H   -2.24642952000000     -0.92627728000000     -2.75019277000000
  H   -0.55512020000000     -1.47057223000000     -2.68081104000000
  C   -2.10341348000000      0.97470135000000     -1.00023141000000
  H   -2.06548730000000      1.39649569000000     -0.00172645000000
  H   -3.11392669000000      0.61995799000000     -1.21675798000000
  H   -1.83173879000000      1.74047128000000     -1.71762604000000
  C   -1.49587218000000     -1.00572790000000      1.25868540000000
  C   -0.31531383000000     -1.48538431000000      1.92020802000000
  C   -0.17509272000000     -1.39029227000000      3.29989794000000
  C   -1.24828120000000     -0.90977438000000      4.01863638000000
  C   -2.42133784000000     -0.45642134000000      3.34575556000000
  C   -2.62660568000000     -0.51497877000000      1.99678191000000
  H   -1.16183360000000     -0.82323817000000      5.10738891000000
  H   -3.25162645000000     -0.23525021000000      3.99138702000000
  H   0.50789847000000     -1.96538238000000      1.36518293000000
  H   0.69552581000000     -1.78997752000000      3.80061834000000
  H   -3.35886387000000     -0.07207956000000      1.63802570000000
  C   -1.53866945000000     -1.26009162000000     -0.23249094000000
  H   -2.57289400000000     -1.54236347000000     -0.45775959000000
  H   -0.92107729000000     -2.12517926000000     -0.51090526000000
  O   1.65394551000000     -1.04739948000000     -1.03937746000000
  C   2.24951210000000     -0.95799779000000     -2.20844583000000
  O   2.04573959000000     -0.08356835000000     -3.01598300000000
  C   3.26265836000000     -2.07436129000000     -2.45173973000000
  H   2.86321382000000     -3.05298545000000     -2.20015222000000
  H   4.14790451000000     -1.90488365000000     -1.84091191000000
  H   3.56096036000000     -2.05878785000000     -3.49806272000000
