38
Coordinates from ORCA-job 1_8_orca
  Pd  0.79984735000000      0.66291130000000     -0.55720330000000
  O   2.33541764000000      1.63950479000000      0.15161509000000
  C   1.67528307000000      2.73172710000000      0.20265026000000
  O   0.44409341000000      2.68111964000000     -0.07668883000000
  C   2.38315017000000      4.03071123000000      0.52339265000000
  H   1.71414047000000      4.73863641000000      1.01910245000000
  H   2.71230992000000      4.50038421000000     -0.41108984000000
  H   3.27369604000000      3.87734366000000      1.14057062000000
  N   -1.16274665000000     -0.14399438000000     -1.15411374000000
  C   -1.22053195000000     -0.67422622000000     -2.53473408000000
  H   -0.92407596000000      0.11654202000000     -3.21330898000000
  H   -2.25315136000000     -0.97141694000000     -2.73802554000000
  H   -0.54944130000000     -1.52721081000000     -2.65646714000000
  C   -2.11229585000000      0.96723054000000     -1.03552004000000
  H   -2.07014496000000      1.40143600000000     -0.03497814000000
  H   -3.12379516000000      0.60481889000000     -1.24401014000000
  H   -1.82728656000000      1.71058902000000     -1.77233179000000
  C   -1.55694682000000     -0.99406066000000      1.28730712000000
  C   -0.37159287000000     -1.49149514000000      1.91625172000000
  C   -0.18637844000000     -1.39440370000000      3.30100587000000
  C   -1.27827521000000     -0.91643201000000      4.00972762000000
  C   -2.42686701000000     -0.40477780000000      3.35095337000000
  C   -2.52912052000000     -0.54487413000000      2.07143116000000
  H   -1.16666523000000     -0.81703476000000      5.10314447000000
  H   -3.25394141000000     -0.20053837000000      4.00096504000000
  H   0.45717903000000     -1.99162717000000      1.35570634000000
  H   0.68124293000000     -1.82832756000000      3.80311289000000
  H   -3.21418568000000      0.08251959000000      1.68027759000000
  C   -1.57045575000000     -1.24401875000000     -0.21938173000000
  H   -2.59984326000000     -1.52552015000000     -0.45155483000000
  H   -0.95831365000000     -2.12388785000000     -0.47520406000000
  O   1.66280236000000     -1.04976508000000     -1.05834241000000
  C   2.24716636000000     -0.93987680000000     -2.22142347000000
  O   2.01621270000000     -0.05418600000000     -3.02456743000000
  C   3.28670027000000     -2.03414323000000     -2.46679215000000
  H   2.90984056000000     -3.03174251000000     -2.22060470000000
  H   4.17180695000000     -1.85160527000000     -1.84863413000000
  H   3.57880299000000     -2.00013197000000     -3.51069413000000
