38
Coordinates from ORCA-job 2_11_orca
  C   -2.37972189000000     -0.13042166000000      0.47297414000000
  C   -1.91797460000000      1.01751753000000      1.27158223000000
  C   -3.71656837000000     -0.47661973000000      0.66817579000000
  C   -4.66632942000000      0.36246347000000      1.25341950000000
  C   -4.27377600000000      1.59416763000000      1.77555768000000
  C   -2.90349598000000      1.87851759000000      1.79834599000000
  H   -2.16823834000000     -1.05771188000000     -0.85281156000000
  H   -3.98188129000000     -1.50142824000000      0.36646537000000
  H   -2.59641136000000      2.85850927000000      2.20975105000000
  H   -5.69441537000000      0.18237928000000      1.00805731000000
  H   -5.01027071000000      2.33156025000000      2.10234061000000
  C   -0.44866800000000      1.49168434000000      1.61792579000000
  C   0.69354478000000      0.42083383000000      1.88237888000000
  H   -0.46657030000000      2.16254529000000      2.52949221000000
  H   -0.14088410000000      2.05328304000000      0.72814119000000
  C   1.77450801000000      0.53810623000000      0.81589218000000
  H   0.26306121000000     -0.59087983000000      1.86506936000000
  H   1.15165089000000      0.59094716000000      2.87850684000000
  C   1.64662490000000     -0.11892875000000     -0.44679660000000
  C   2.65620832000000      0.18357423000000     -1.37505110000000
  C   3.66813025000000      1.12219396000000     -1.13790558000000
  C   2.82965764000000      1.44678580000000      1.07537530000000
  C   3.75851186000000      1.77964214000000      0.09496341000000
  H   2.67701788000000     -0.37139714000000     -2.31753379000000
  H   4.41402429000000      1.33191546000000     -1.89581794000000
  H   3.00779391000000      1.81921948000000      2.08798736000000
  H   4.56301011000000      2.48729816000000      0.30892569000000
  Pd  0.10458227000000     -1.56755454000000     -0.88464377000000
  Br  -1.52238388000000     -3.56827832000000     -0.65062165000000
  P   1.43347829000000     -2.98097042000000      0.10522909000000
  H   1.00067687000000     -3.60093213000000      1.28842819000000
  C   0.35281179000000     -1.34371493000000     -3.84212657000000
  O   1.49408443000000     -1.70433413000000     -4.26197287000000
  O   -0.42872351000000     -1.90888270000000     -3.09235310000000
  O   -0.15224292000000     -0.16358577000000     -4.36760351000000
  H   2.79521497000000     -2.75797178000000      0.44740683000000
  H   1.58926106000000     -4.11026827000000     -0.72094824000000
  H   0.59081075000000      0.29242801000000     -4.79247591000000
