38
Coordinates from ORCA-job 2_12_orca
  C   -2.37180950000000     -0.13887618000000      0.47132825000000
  C   -1.89315735000000      1.00431847000000      1.26378474000000
  C   -3.69762029000000     -0.50737883000000      0.73700276000000
  C   -4.66121821000000      0.39152261000000      1.21174420000000
  C   -4.25716623000000      1.59477288000000      1.74154883000000
  C   -2.89612286000000      1.85746875000000      1.80845630000000
  H   -2.10807881000000     -0.97908696000000     -0.69904444000000
  H   -4.00582428000000     -1.47034411000000      0.33687290000000
  H   -2.58587786000000      2.80581066000000      2.25401136000000
  H   -5.71809705000000      0.15896796000000      1.07303512000000
  H   -4.98887737000000      2.31940712000000      2.10555321000000
  C   -0.47046150000000      1.47680722000000      1.56863898000000
  C   0.66126462000000      0.43688964000000      1.84992157000000
  H   -0.48020704000000      2.13953842000000      2.40570366000000
  H   -0.13417012000000      2.05793602000000      0.73952116000000
  C   1.73711202000000      0.55302911000000      0.80051002000000
  H   0.26270488000000     -0.58030681000000      1.86590329000000
  H   1.11270549000000      0.59360124000000      2.84148681000000
  C   1.65293326000000     -0.12634961000000     -0.43706479000000
  C   2.65953057000000      0.16319319000000     -1.37318796000000
  C   3.66211397000000      1.11493350000000     -1.13113262000000
  C   2.83319075000000      1.39487889000000      1.07228301000000
  C   3.74284096000000      1.76245429000000      0.08911745000000
  H   2.67743527000000     -0.35998356000000     -2.32049398000000
  H   4.41045835000000      1.32466435000000     -1.89491031000000
  H   2.96831854000000      1.83011887000000      2.06523121000000
  H   4.55464103000000      2.46604063000000      0.30412214000000
  Pd  0.17814635000000     -1.52749675000000     -0.83395339000000
  Br  -1.54337235000000     -3.56186198000000     -0.67319862000000
  P   1.44074664000000     -2.99473197000000      0.11882944000000
  H   0.99428183000000     -3.58783384000000      1.27952326000000
  C   0.33682398000000     -1.28846923000000     -3.84171863000000
  O   1.54337240000000     -1.71750767000000     -4.26585807000000
  O   -0.43960338000000     -1.88361926000000     -3.09752590000000
  O   -0.13236372000000     -0.14629202000000     -4.37229591000000
  H   2.76510364000000     -2.74978098000000      0.45592499000000
  H   1.59406820000000     -4.10399874000000     -0.69750091000000
  H   0.58742977000000      0.27061070000000     -4.80873467000000
