38
Coordinates from ORCA-job 2_14_orca
  C   -2.37508811000000     -0.16302277000000      0.49958219000000
  C   -1.90596313000000      0.98725030000000      1.26912682000000
  C   -3.70177109000000     -0.51062992000000      0.75911063000000
  C   -4.65930576000000      0.39055335000000      1.22538730000000
  C   -4.24460831000000      1.59988578000000      1.75680517000000
  C   -2.87852743000000      1.83873899000000      1.83670381000000
  H   -2.10165212000000     -0.97374166000000     -0.64521735000000
  H   -4.02451521000000     -1.46149284000000      0.37189540000000
  H   -2.57025528000000      2.77190218000000      2.30741254000000
  H   -5.71924483000000      0.15772178000000      1.13030507000000
  H   -4.96912812000000      2.31841511000000      2.12748195000000
  C   -0.48175528000000      1.44627234000000      1.50884849000000
  C   0.64209095000000      0.44331786000000      1.81675387000000
  H   -0.48567146000000      2.17370616000000      2.31836960000000
  H   -0.15917087000000      2.04307124000000      0.66798966000000
  C   1.73650274000000      0.55386835000000      0.79124845000000
  H   0.25274768000000     -0.56809876000000      1.84983032000000
  H   1.07173815000000      0.61835326000000      2.80963161000000
  C   1.66434914000000     -0.12079840000000     -0.44355290000000
  C   2.67716149000000      0.15196713000000     -1.37009723000000
  C   3.67080415000000      1.10389129000000     -1.13107944000000
  C   2.82535250000000      1.39040742000000      1.06806172000000
  C   3.74835193000000      1.74282554000000      0.09449714000000
  H   2.69747380000000     -0.36862518000000     -2.31998941000000
  H   4.41917655000000      1.31721245000000     -1.88728174000000
  H   2.93892883000000      1.83312613000000      2.05410092000000
  H   4.54206910000000      2.45767428000000      0.30426011000000
  Pd  0.20533554000000     -1.50335951000000     -0.83510410000000
  Br  -1.54291742000000     -3.55682711000000     -0.72426067000000
  P   1.42941867000000     -2.98950778000000      0.12591439000000
  H   0.95913148000000     -3.57749271000000      1.29166876000000
  C   0.37634837000000     -1.29492236000000     -3.86854980000000
  O   1.52690956000000     -1.69052264000000     -4.23998170000000
  O   -0.43459632000000     -1.85005745000000     -3.09069582000000
  O   -0.11369364000000     -0.12629016000000     -4.38776517000000
  H   2.75043635000000     -2.74486244000000      0.49455007000000
  H   1.60419136000000     -4.11627371000000     -0.66893081000000
  H   0.61966598000000      0.26975429000000     -4.85635266000000
