38
Coordinates from ORCA-job 2_17_orca
  C   -2.32721041000000     -0.21366605000000      0.53992918000000
  C   -1.90086212000000      0.96151764000000      1.27694991000000
  C   -3.68287082000000     -0.49423714000000      0.71462530000000
  C   -4.62619844000000      0.37997710000000      1.24601554000000
  C   -4.22330098000000      1.59702628000000      1.75524599000000
  C   -2.86371589000000      1.81799593000000      1.87122399000000
  H   -1.95657112000000     -1.10811299000000     -0.54145162000000
  H   -4.01234364000000     -1.45238879000000      0.35616811000000
  H   -2.54923136000000      2.72542231000000      2.40561999000000
  H   -5.67545560000000      0.13402833000000      1.19366022000000
  H   -4.94312323000000      2.32642640000000      2.10338741000000
  C   -0.47648939000000      1.47563771000000      1.46152141000000
  C   0.62947426000000      0.43856530000000      1.79601299000000
  H   -0.49231945000000      2.22075307000000      2.26850387000000
  H   -0.15983213000000      2.05600931000000      0.58101666000000
  C   1.73881305000000      0.52943669000000      0.79667281000000
  H   0.21065517000000     -0.56760001000000      1.84208744000000
  H   1.01936970000000      0.65555946000000      2.79164249000000
  C   1.65613948000000     -0.11841526000000     -0.44517216000000
  C   2.66009217000000      0.13429644000000     -1.37970835000000
  C   3.65818255000000      1.07225921000000     -1.13170129000000
  C   2.79116679000000      1.40361282000000      1.05809356000000
  C   3.74650848000000      1.68992895000000      0.10008255000000
  H   2.67205294000000     -0.38045401000000     -2.33007560000000
  H   4.39300910000000      1.29799016000000     -1.89315761000000
  H   2.86857603000000      1.85700967000000      2.03840251000000
  H   4.52485750000000      2.41236169000000      0.30519397000000
  Pd  0.16915062000000     -1.43921239000000     -0.82176958000000
  Br  -1.62811534000000     -3.43479846000000     -0.79829672000000
  P   1.42603017000000     -2.97391791000000      0.12294488000000
  H   0.93615785000000     -3.56449838000000      1.29953860000000
  C   0.38701262000000     -1.28986500000000     -3.88518196000000
  O   1.49799923000000     -1.65988149000000     -4.21302000000000
  O   -0.42534564000000     -1.81214691000000     -3.04109820000000
  O   -0.07358178000000     -0.09373848000000     -4.38845672000000
  H   2.76218706000000     -2.73296354000000      0.51449198000000
  H   1.60857075000000     -4.12632228000000     -0.66638192000000
  H   0.64747245000000      0.26820701000000     -4.90520666000000
