38
Coordinates from ORCA-job 2_18_orca
  C   -2.29711061000000     -0.21782435000000      0.54713195000000
  C   -1.88838634000000      0.96671690000000      1.28433743000000
  C   -3.66597945000000     -0.48563716000000      0.67445408000000
  C   -4.60561092000000      0.37059722000000      1.25364796000000
  C   -4.21535887000000      1.59024781000000      1.76411332000000
  C   -2.85594474000000      1.81419626000000      1.88521317000000
  H   -1.88987134000000     -1.23669796000000     -0.52990418000000
  H   -3.99677346000000     -1.45600437000000      0.34220846000000
  H   -2.54475328000000      2.71826264000000      2.42517162000000
  H   -5.64968322000000      0.12488307000000      1.19740712000000
  H   -4.94028832000000      2.33149584000000      2.08850435000000
  C   -0.46740253000000      1.50082729000000      1.46309688000000
  C   0.62546683000000      0.43985951000000      1.80359321000000
  H   -0.48468011000000      2.23955925000000      2.28278923000000
  H   -0.16437986000000      2.05340121000000      0.56206333000000
  C   1.73976557000000      0.51819560000000      0.80316982000000
  H   0.19012257000000     -0.56744767000000      1.84461801000000
  H   1.01404283000000      0.66438895000000      2.80231847000000
  C   1.64335693000000     -0.11888550000000     -0.44562809000000
  C   2.64033421000000      0.13407310000000     -1.38731811000000
  C   3.65134901000000      1.05640526000000     -1.13279915000000
  C   2.77729951000000      1.41394453000000      1.05641283000000
  C   3.74392806000000      1.67473188000000      0.10177357000000
  H   2.64895138000000     -0.38889497000000     -2.33607289000000
  H   4.37772331000000      1.28723574000000     -1.89998757000000
  H   2.84538146000000      1.87125632000000      2.03725931000000
  H   4.52295172000000      2.39485662000000      0.30607703000000
  Pd  0.13481428000000     -1.41906866000000     -0.81999199000000
  Br  -1.68634979000000     -3.35223851000000     -0.82428093000000
  P   1.42780086000000     -2.96431825000000      0.11816745000000
  H   0.93784272000000     -3.56036346000000      1.29631543000000
  C   0.35040020000000     -1.28060163000000     -3.85038257000000
  O   1.50693979000000     -1.66567359000000     -4.22059115000000
  O   -0.40615625000000     -1.78699272000000     -3.03794395000000
  O   -0.06299658000000     -0.08627770000000     -4.38523761000000
  H   2.77126342000000     -2.73150021000000      0.51073080000000
  H   1.60600768000000     -4.12173024000000     -0.67416173000000
  H   0.65262288000000      0.26717735000000     -4.91397949000000
