38
Coordinates from ORCA-job 2_7_orca
  C   -2.48049784000000     -0.20038779000000      0.67975800000000
  C   -1.94665571000000      0.94650406000000      1.35767905000000
  C   -3.80515024000000     -0.50973472000000      0.87605491000000
  C   -4.68129520000000      0.40565351000000      1.44128295000000
  C   -4.22313359000000      1.59291536000000      1.97670335000000
  C   -2.87896143000000      1.81800883000000      2.02194309000000
  H   -2.45185745000000     -1.19166693000000     -1.02637795000000
  H   -4.11528826000000     -1.52695038000000      0.75360058000000
  H   -2.50558942000000      2.74496821000000      2.44259693000000
  H   -5.73590410000000      0.25334877000000      1.26965401000000
  H   -4.92291406000000      2.33455876000000      2.33827692000000
  C   -0.53041724000000      1.45942429000000      1.31664969000000
  C   0.63365534000000      0.48290217000000      1.70014349000000
  H   -0.43466693000000      2.34571774000000      1.94111627000000
  H   -0.43900794000000      1.79203653000000      0.29216842000000
  C   1.78576555000000      0.57422946000000      0.75631856000000
  H   0.23679565000000     -0.52324366000000      1.73688304000000
  H   0.95450157000000      0.73772358000000      2.70801008000000
  C   1.74650527000000     -0.07182307000000     -0.49597062000000
  C   2.81174408000000      0.13590990000000     -1.37740200000000
  C   3.79048932000000      1.09830811000000     -1.09403212000000
  C   2.82909739000000      1.44768255000000      1.05555394000000
  C   3.81596140000000      1.73766797000000      0.11827557000000
  H   2.89085211000000     -0.45093306000000     -2.27822186000000
  H   4.55696325000000      1.30549129000000     -1.83866751000000
  H   2.93969357000000      1.80538604000000      2.07432468000000
  H   4.51777680000000      2.53989860000000      0.32136976000000
  Pd  0.23048840000000     -1.50008798000000     -1.02152367000000
  Br  -1.39760440000000     -3.67938170000000     -0.97655212000000
  P   1.36619385000000     -2.98601343000000      0.20096100000000
  H   0.74919224000000     -3.51387843000000      1.33272785000000
  C   0.38457538000000     -1.32688126000000     -3.93976528000000
  O   1.61013258000000     -1.63970402000000     -4.20453991000000
  O   -0.37314463000000     -1.70062385000000     -3.10014779000000
  O   0.03575189000000     -0.06817670000000     -4.53232856000000
  H   2.64620743000000     -2.76013209000000      0.72691491000000
  H   1.65350100000000     -4.17455141000000     -0.49446928000000
  H   0.73649941000000      0.26489226000000     -5.05044443000000
