27
Coordinates from ORCA-job 8_0_orca
  Pd  -2.06925045000000     -1.56199876000000      0.60383884000000
  Cl  -3.23106306000000     -3.32699580000000     -0.41063745000000
  Cl  -0.15192814000000     -5.05742617000000      0.92257663000000
  Cl  -4.08603500000000     -0.93284069000000      1.49001215000000
  N   -1.02389201000000      0.06207089000000      1.38755910000000
  C   -1.36932852000000      0.63772310000000      2.52632792000000
  C   -0.83832671000000      1.85817067000000      2.95069319000000
  C   0.09583103000000      2.47685444000000      2.15557255000000
  C   -0.09204985000000      0.63220340000000      0.59486281000000
  C   0.48760718000000      1.86605014000000      0.95634746000000
  H   0.52559141000000      3.42439497000000      2.46008142000000
  H   -2.05778691000000      0.08095259000000      3.14863134000000
  H   -1.15708791000000      2.29577898000000      3.88581099000000
  C   0.31168184000000     -0.06198498000000     -0.58995905000000
  C   1.45198434000000      2.45455901000000      0.07908429000000
  C   1.80642695000000      1.83124772000000     -1.06900746000000
  C   1.26194088000000      0.55743233000000     -1.43074137000000
  H   1.89145789000000      3.40915859000000      0.34155286000000
  H   2.53412245000000      2.30108847000000     -1.72101302000000
  C   -0.22420066000000     -1.33031976000000     -0.89533453000000
  C   1.67198833000000     -0.09838704000000     -2.59963589000000
  C   0.17658232000000     -1.92049525000000     -2.08358093000000
  C   1.15290923000000     -1.33885062000000     -2.89778618000000
  H   2.39700575000000      0.36158571000000     -3.26116777000000
  H   1.48510049000000     -1.83480264000000     -3.80063256000000
  H   -0.66156638000000     -3.95223309000000     -0.31782675000000
  H   -0.28771768000000     -2.83293621000000     -2.42563179000000
