27
Coordinates from ORCA-job 8_2_orca
  Pd  -1.97864553000000     -1.54669385000000      0.46925100000000
  Cl  -3.18480540000000     -3.31139855000000     -0.39802601000000
  Cl  -0.27152899000000     -4.85703324000000      0.77846564000000
  Cl  -4.09303607000000     -0.86221735000000      1.47347637000000
  N   -1.03561231000000      0.03791704000000      1.38647184000000
  C   -1.35417700000000      0.60502911000000      2.53854747000000
  C   -0.82869038000000      1.83262539000000      2.95544369000000
  C   0.09144631000000      2.46703432000000      2.15266807000000
  C   -0.08501367000000      0.62257817000000      0.60478566000000
  C   0.48781696000000      1.86421029000000      0.95400874000000
  H   0.52343498000000      3.41198505000000      2.45167454000000
  H   -2.06358334000000      0.07461372000000      3.14512664000000
  H   -1.15035235000000      2.27188472000000      3.89007477000000
  C   0.31651966000000     -0.07959377000000     -0.58690307000000
  C   1.44308309000000      2.45710992000000      0.07821817000000
  C   1.79960330000000      1.83723779000000     -1.07516277000000
  C   1.26683464000000      0.56226611000000     -1.43890892000000
  H   1.87560099000000      3.40743596000000      0.34065994000000
  H   2.51794511000000      2.30315597000000     -1.73015511000000
  C   -0.31270470000000     -1.35772530000000     -0.84150633000000
  C   1.68270554000000     -0.09254157000000     -2.60097221000000
  C   0.17200857000000     -1.92282343000000     -2.05415645000000
  C   1.14846429000000     -1.32806830000000     -2.90685903000000
  H   2.39260010000000      0.37391438000000     -3.26016639000000
  H   1.49115383000000     -1.83478968000000     -3.81051181000000
  H   -0.58340931000000     -4.07818094000000     -0.09110365000000
  H   -0.26435696000000     -2.85613548000000     -2.42228642000000
