27
Coordinates from ORCA-job 8_3_orca
  Pd  -1.98320737000000     -1.53988151000000      0.46720827000000
  Cl  -3.18077620000000     -3.31149064000000     -0.40171188000000
  Cl  -0.26452938000000     -4.87370674000000      0.80202177000000
  Cl  -4.08508679000000     -0.85912055000000      1.46992685000000
  N   -1.02662025000000      0.04152728000000      1.38238560000000
  C   -1.35481610000000      0.60281746000000      2.53562259000000
  C   -0.82697203000000      1.83046371000000      2.95602357000000
  C   0.09118203000000      2.46607488000000      2.15354435000000
  C   -0.08497787000000      0.62034190000000      0.60301493000000
  C   0.48588069000000      1.86063224000000      0.95484324000000
  H   0.52279849000000      3.41168920000000      2.45123387000000
  H   -2.06647250000000      0.07234628000000      3.14621745000000
  H   -1.14951120000000      2.26913666000000      3.88981155000000
  C   0.30989874000000     -0.08091123000000     -0.58133077000000
  C   1.44273583000000      2.45659017000000      0.07652766000000
  C   1.79789027000000      1.83668246000000     -1.07388499000000
  C   1.26248058000000      0.55592453000000     -1.43442106000000
  H   1.87497756000000      3.40894593000000      0.34098022000000
  H   2.51779133000000      2.30417183000000     -1.73181046000000
  C   -0.29991630000000     -1.35097492000000     -0.85584110000000
  C   1.68105962000000     -0.09333673000000     -2.60221921000000
  C   0.16571736000000     -1.92517693000000     -2.04987129000000
  C   1.14272103000000     -1.33059795000000     -2.89811216000000
  H   2.39421952000000      0.37576888000000     -3.26165493000000
  H   1.48922814000000     -1.83428421000000     -3.80848997000000
  H   -0.59116531000000     -4.05703374000000     -0.10815949000000
  H   -0.26100576000000     -2.85442371000000     -2.41967117000000
