9
Generated by autodE on: 2023-07-11. 
Pt   -1.35217  -1.05373   0.67763
Cl   -0.32334  -0.96830   2.73825
Cl   -2.80942  -2.67395   1.18554
Cl   -2.06848  -0.77739  -1.49724
C     1.30911   1.09625  -0.62102
H     1.43281   2.17689  -0.60740
H     1.24079   0.72779   0.40140
H     2.16509   0.63469  -1.10795
H     0.40561   0.83774  -1.16921
