38
Coordinates from ORCA-job 0_0_orca
  C   -2.83860000000000     -0.33444000000000      0.83366000000000
  C   -2.18519000000000      0.87771000000000      1.05464000000000
  C   -4.00482000000000     -0.64320000000000      1.51734000000000
  C   -4.54291000000000      0.25328000000000      2.43114000000000
  C   -3.90471000000000      1.46388000000000      2.65415000000000
  C   -2.73558000000000      1.76832000000000      1.97091000000000
  H   -2.43278000000000     -1.03772000000000      0.11269000000000
  H   -4.49697000000000     -1.58872000000000      1.32812000000000
  H   -2.24170000000000      2.71717000000000      2.14915000000000
  H   -5.45513000000000      0.01061000000000      2.96169000000000
  H   -4.31820000000000      2.17396000000000      3.35984000000000
  C   -0.88340000000000      1.17139000000000      0.36713000000000
  C   0.29308000000000      0.55551000000000      1.14002000000000
  H   -0.72742000000000      2.25024000000000      0.28467000000000
  H   -0.89942000000000      0.78427000000000     -0.65276000000000
  C   1.60731000000000      0.63149000000000      0.40868000000000
  H   0.04409000000000     -0.48449000000000      1.37125000000000
  H   0.37460000000000      1.05957000000000      2.10853000000000
  C   1.90897000000000     -0.21973000000000     -0.66512000000000
  C   3.14512000000000     -0.08200000000000     -1.29567000000000
  C   4.06557000000000      0.87244000000000     -0.88155000000000
  C   2.53604000000000      1.59262000000000      0.80614000000000
  C   3.76217000000000      1.71850000000000      0.17337000000000
  H   3.38622000000000     -0.71899000000000     -2.13789000000000
  H   5.01872000000000      0.95534000000000     -1.39088000000000
  H   2.29155000000000      2.25252000000000      1.63295000000000
  H   4.47129000000000      2.46866000000000      0.50185000000000
  Pd  0.60687000000000     -1.56558000000000     -1.35155000000000
  Br  -1.19186000000000     -3.31182000000000     -1.91934000000000
  P   0.98771000000000     -2.88746000000000      0.37932000000000
  H   -0.06776000000000     -3.22452000000000      1.24259000000000
  C   0.98774000000000     -0.67769000000000     -3.99442000000000
  O   1.86654000000000     -1.52303000000000     -4.09651000000000
  O   0.29493000000000     -0.36277000000000     -2.98149000000000
  O   0.66216000000000      0.07339000000000     -5.08519000000000
  H   1.94478000000000     -2.55293000000000      1.36117000000000
  H   1.44544000000000     -4.18323000000000      0.09421000000000
  H   1.22558000000000     -0.25254000000000     -5.79281000000000
