39
Coordinates from ORCA-job 8_3_orca
  Ir  0.57418342000000     -0.75667228000000      0.55744654000000
  C   0.02131308000000     -2.89324735000000      1.13973518000000
  C   0.18697242000000     -2.15697996000000      2.33155402000000
  C   2.16788388000000     -2.07506575000000      1.14749743000000
  C   1.20230297000000     -2.81953267000000      0.37396484000000
  C   1.55143095000000     -1.70951232000000      2.34777719000000
  N   -1.09887159000000     -0.12439385000000     -0.50903511000000
  C   -2.49667437000000     -0.12915599000000      0.02715017000000
  C   -2.81200538000000      1.13867861000000      0.80169974000000
  H   -3.83665318000000      1.09887967000000      1.17023490000000
  H   -2.71976853000000      2.01649202000000      0.16231072000000
  H   -2.17865063000000      1.23825035000000      1.67189328000000
  C   -3.55292057000000     -0.39196511000000     -1.03403578000000
  H   -2.52391933000000     -0.96007792000000      0.72342301000000
  H   -4.51141061000000     -0.55164796000000     -0.53569310000000
  H   -3.70157123000000      0.45081751000000     -1.70693874000000
  H   -3.33872411000000     -1.28727362000000     -1.61055793000000
  C   -0.87387274000000      0.22827886000000     -1.72336518000000
  C   0.44357688000000      0.18230405000000     -2.28785688000000
  H   -1.68871588000000      0.52181650000000     -2.36364738000000
  C   1.54495044000000     -0.13302219000000     -1.49413622000000
  C   2.70337999000000     -0.19743252000000     -2.39445582000000
  S   0.75807402000000      0.33008910000000     -3.97941260000000
  C   2.41125738000000      0.03769335000000     -3.72242577000000
  H   2.16608120000000      1.30963151000000     -0.67617882000000
  H   3.72944519000000     -0.36595004000000     -2.08586556000000
  H   3.09980077000000      0.00427549000000     -4.56184004000000
  H   -0.77492773000000     -3.58525681000000      0.94140205000000
  H   -0.49561407000000     -2.11026096000000      3.17176906000000
  H   2.03527571000000     -1.26676880000000      3.19841843000000
  O   2.09013938000000      2.08223877000000      0.17056109000000
  O   0.39430316000000      1.17957584000000      1.41157013000000
  C   1.15090717000000      2.12398947000000      1.08368005000000
  C   0.96079307000000      3.47431060000000      1.82894784000000
  H   0.89395921000000      4.29182450000000      1.11067075000000
  H   1.83628099000000      3.67432583000000      2.45168183000000
  H   0.07607893000000      3.48195961000000      2.47252111000000
  H   3.20410007000000     -1.95437702000000      0.90645263000000
  H   1.40064695000000     -3.39787168000000     -0.51522341000000
