39
Coordinates from ORCA-job 8_5_orca
  Ir  0.62769212000000     -0.75862274000000      0.50887957000000
  C   0.00903659000000     -2.91175360000000      1.20719803000000
  C   0.25797078000000     -2.13337816000000      2.36708063000000
  C   2.18441005000000     -2.16160308000000      1.09368468000000
  C   1.15798502000000     -2.83398426000000      0.36584065000000
  C   1.60229926000000     -1.71311784000000      2.31572282000000
  N   -1.09232007000000     -0.12562679000000     -0.52733360000000
  C   -2.47716421000000     -0.11325860000000      0.02267579000000
  C   -2.82280708000000      1.18148822000000      0.75743956000000
  H   -3.85754498000000      1.13796645000000      1.10071998000000
  H   -2.73081353000000      2.04423886000000      0.09506954000000
  H   -2.18392907000000      1.33357151000000      1.63151461000000
  C   -3.53865093000000     -0.42021923000000     -1.03025749000000
  H   -2.50596135000000     -0.93266763000000      0.75960236000000
  H   -4.48834567000000     -0.57225610000000     -0.53570198000000
  H   -3.68789199000000      0.40074517000000     -1.74132667000000
  H   -3.30391803000000     -1.33122056000000     -1.59206595000000
  C   -0.86708239000000      0.22838143000000     -1.73425431000000
  C   0.45044439000000      0.16577583000000     -2.25480161000000
  H   -1.70327762000000      0.53820501000000     -2.36723252000000
  C   1.54445567000000     -0.10403249000000     -1.48054887000000
  C   2.68556801000000     -0.17390423000000     -2.35811374000000
  S   0.74661845000000      0.32124169000000     -3.95540957000000
  C   2.40058878000000      0.01104261000000     -3.69720068000000
  H   2.03637201000000      1.31572793000000     -0.46626130000000
  H   3.73913494000000     -0.33098937000000     -2.10416102000000
  H   3.07600932000000     -0.00113770000000     -4.56961917000000
  H   -0.86141289000000     -3.51978064000000      1.00833507000000
  H   -0.40358548000000     -2.06941653000000      3.21923730000000
  H   2.15062304000000     -1.24012881000000      3.12938126000000
  O   2.04714246000000      2.10529681000000      0.19717137000000
  O   0.43422238000000      1.17477274000000      1.39337401000000
  C   1.14882014000000      2.09239711000000      1.08344916000000
  C   0.97527046000000      3.41002151000000      1.82077743000000
  H   0.88899788000000      4.26742145000000      1.13910019000000
  H   1.81070693000000      3.65398710000000      2.48283445000000
  H   0.06812795000000      3.46050924000000      2.47627188000000
  H   3.19820161000000     -2.00087388000000      0.78759745000000
  H   1.28068488000000     -3.39614684000000     -0.54504763000000
