39
Coordinates from ORCA-job 8_7_orca
  Ir  0.68253041000000     -0.77670433000000      0.47979258000000
  C   -0.00409635000000     -2.91107129000000      1.28188653000000
  C   0.32867554000000     -2.12818797000000      2.39510499000000
  C   2.20047517000000     -2.24113883000000      1.04184050000000
  C   1.08821034000000     -2.87489228000000      0.35243887000000
  C   1.71664936000000     -1.71469451000000      2.24993423000000
  N   -1.07744458000000     -0.13367372000000     -0.53221024000000
  C   -2.45592741000000     -0.10299013000000      0.02672442000000
  C   -2.82222872000000      1.23517305000000      0.70057507000000
  H   -3.87655029000000      1.18814728000000      1.01068794000000
  H   -2.74508053000000      2.07753134000000      0.00609977000000
  H   -2.19857786000000      1.45755812000000      1.56869748000000
  C   -3.50566876000000     -0.45858887000000     -1.03605413000000
  H   -2.47895955000000     -0.88251706000000      0.79433645000000
  H   -4.46563328000000     -0.60144927000000     -0.53175262000000
  H   -3.66861864000000      0.32929171000000     -1.77868577000000
  H   -3.26111987000000     -1.38217412000000     -1.56203873000000
  C   -0.88692576000000      0.23043198000000     -1.74855935000000
  C   0.43824122000000      0.16855377000000     -2.25110975000000
  H   -1.70747330000000      0.55761637000000     -2.37093747000000
  C   1.54282655000000     -0.08365874000000     -1.44146488000000
  C   2.69387627000000     -0.15013628000000     -2.32918769000000
  S   0.73828609000000      0.30065934000000     -3.91408645000000
  C   2.38495727000000     -0.01131246000000     -3.66950516000000
  H   1.88202979000000      1.24231410000000     -0.27964522000000
  H   3.73662241000000     -0.28734601000000     -2.10991109000000
  H   3.03416410000000     -0.01080680000000     -4.54662337000000
  H   -0.96667547000000     -3.41432034000000      1.09937216000000
  H   -0.28362478000000     -2.00485588000000      3.28091359000000
  H   2.29183693000000     -1.20370597000000      3.02136164000000
  O   2.03928638000000      2.18669940000000      0.23483312000000
  O   0.45472561000000      1.10156364000000      1.36707735000000
  C   1.12037092000000      2.13439378000000      1.15063117000000
  C   0.95293762000000      3.38291676000000      1.85516069000000
  H   0.88891258000000      4.21952082000000      1.17237100000000
  H   1.78426806000000      3.61430847000000      2.51520841000000
  H   0.07935629000000      3.41327778000000      2.46005245000000
  H   3.19139981000000     -2.06825579000000      0.63078306000000
  H   1.12687111000000     -3.39954585000000     -0.58813588000000
