39
Coordinates from ORCA-job 8_8_orca
  Ir  0.65629237000000     -0.76543382000000      0.49028105000000
  C   0.00281445000000     -2.91372435000000      1.24423198000000
  C   0.28993288000000     -2.13105648000000      2.38011523000000
  C   2.19413714000000     -2.20095651000000      1.07113025000000
  C   1.12409053000000     -2.85297804000000      0.35934948000000
  C   1.65773458000000     -1.71285473000000      2.28566873000000
  N   -1.08546366000000     -0.12929675000000     -0.53181481000000
  C   -2.46782057000000     -0.10877253000000      0.02515629000000
  C   -2.82255662000000      1.20730107000000      0.73137759000000
  H   -3.86742352000000      1.16146800000000      1.05788226000000
  H   -2.73755393000000      2.06043582000000      0.05338006000000
  H   -2.19023170000000      1.39241184000000      1.60220232000000
  C   -3.52273790000000     -0.43834272000000     -1.03391685000000
  H   -2.49308430000000     -0.90976231000000      0.77641565000000
  H   -4.47777697000000     -0.58595872000000     -0.53346644000000
  H   -3.67900738000000      0.36721725000000     -1.75943950000000
  H   -3.28373750000000     -1.35526716000000     -1.57829373000000
  C   -0.87673744000000      0.22948556000000     -1.74126194000000
  C   0.44414025000000      0.16557392000000     -2.25399992000000
  H   -1.70595301000000      0.54740923000000     -2.36880008000000
  C   1.54403136000000     -0.09486642000000     -1.45713964000000
  C   2.68901424000000     -0.16207640000000     -2.34418906000000
  S   0.74221504000000      0.31266906000000     -3.93595287000000
  C   2.39287518000000     -0.00075735000000     -3.68354875000000
  H   1.95944218000000      1.27525279000000     -0.37790002000000
  H   3.73812108000000     -0.31055612000000     -2.10762116000000
  H   3.05657587000000     -0.00529860000000     -4.56022369000000
  H   -0.91226294000000     -3.47008619000000      1.05027622000000
  H   -0.34752310000000     -2.03941037000000      3.24865890000000
  H   2.21739356000000     -1.22231755000000      3.07914665000000
  O   2.04327804000000      2.15597253000000      0.22254610000000
  O   0.44048065000000      1.13624503000000      1.38254643000000
  C   1.14169274000000      2.11208667000000      1.10904503000000
  C   0.96722917000000      3.39415103000000      1.83321273000000
  H   0.88876721000000      4.24497706000000      1.15545631000000
  H   1.79772541000000      3.63571090000000      2.49814134000000
  H   0.07362639000000      3.43868060000000      2.46850421000000
  H   3.19499667000000     -2.03187036000000      0.71362786000000
  H   1.20809829000000     -3.39703902000000     -0.56598551000000
