21
Coordinates from ORCA-job 9_0_orca
  C   -1.38176776000000      0.15252959000000     -0.78494422000000
  C   -2.23026920000000     -0.87600072000000     -1.17373019000000
  C   -2.00795118000000     -2.17244217000000     -0.74494623000000
  C   -0.94390913000000     -2.45847404000000      0.09320451000000
  C   -0.35429082000000     -0.17779788000000      0.07486757000000
  C   -0.11791584000000     -1.44720889000000      0.55776516000000
  H   -1.58589734000000      1.12716890000000     -1.21370017000000
  H   -3.05718088000000     -0.66594756000000     -1.84107766000000
  H   -2.67175316000000     -2.96687616000000     -1.06823012000000
  H   0.69836856000000     -1.72149748000000      1.21536553000000
  H   -0.77031605000000     -3.47759043000000      0.41652796000000
  Pd  1.48070208000000      1.06691343000000     -0.21087835000000
  O   3.49761057000000      1.47027156000000     -0.88932479000000
  O   2.72410648000000     -0.53686023000000     -0.56025897000000
  O   0.31882062000000      2.72844050000000      0.18101602000000
  C   -0.15019385000000      2.82538267000000      1.30165491000000
  O   0.19993165000000      2.01832413000000      2.24846661000000
  H   -1.04286253000000      1.47881859000000      2.96472938000000
  C   3.66014134000000      0.23695202000000     -0.89540670000000
  H   4.60914685000000     -0.21729663000000     -1.21228305000000
  H   -0.87451291000000      3.61318080000000      1.54119780000000
