21
Coordinates from ORCA-job 9_10_orca
  C   -1.40661569000000      0.15097099000000     -0.69571035000000
  C   -2.17893621000000     -0.89920719000000     -1.18891075000000
  C   -1.88645898000000     -2.19650052000000     -0.84842504000000
  C   -0.92559804000000     -2.45225230000000      0.10426628000000
  C   -0.27563851000000     -0.12226734000000      0.09902824000000
  C   -0.15205494000000     -1.42389422000000      0.62215134000000
  H   -1.62936463000000      1.18254462000000     -0.97998154000000
  H   -2.90800733000000     -0.67041130000000     -1.92523608000000
  H   -2.36989221000000     -3.01484558000000     -1.34940957000000
  H   0.61993043000000     -1.60858208000000      1.37263884000000
  H   -0.65096849000000     -3.44081094000000      0.38009877000000
  Pd  1.33906965000000      0.96379626000000     -0.10581491000000
  O   3.34077205000000      1.38515980000000     -1.03859752000000
  O   2.61426905000000     -0.58510187000000     -0.43085816000000
  O   0.36931530000000      2.73526473000000      0.27991313000000
  C   -0.19260877000000      2.83762911000000      1.36922424000000
  O   0.00211428000000      1.92958451000000      2.31605192000000
  H   -0.78990782000000      1.63443126000000      2.68074231000000
  C   3.50192490000000      0.16027101000000     -0.93943802000000
  H   4.41012308000000     -0.32423838000000     -1.30587396000000
  H   -0.86515055000000      3.74768692000000      1.58945974000000
