21
Coordinates from ORCA-job 9_12_orca
  C   -1.40059893000000      0.16361623000000     -0.65356618000000
  C   -2.14253457000000     -0.89091957000000     -1.20233530000000
  C   -1.82824194000000     -2.20492335000000     -0.89101552000000
  C   -0.88474657000000     -2.44761451000000      0.09852991000000
  C   -0.30010146000000     -0.10930413000000      0.15773044000000
  C   -0.15735738000000     -1.39639691000000      0.65617398000000
  H   -1.66377854000000      1.19047201000000     -0.91217296000000
  H   -2.87640034000000     -0.66375756000000     -1.97060292000000
  H   -2.24451572000000     -3.01461147000000     -1.44895565000000
  H   0.58618308000000     -1.59609883000000      1.42890803000000
  H   -0.60695554000000     -3.46155480000000      0.37664338000000
  Pd  1.32280815000000      0.95808949000000     -0.08812991000000
  O   3.26224900000000      1.34601699000000     -1.07934047000000
  O   2.57405334000000     -0.60744196000000     -0.38639682000000
  O   0.34381993000000      2.77417339000000      0.26966803000000
  C   -0.16182202000000      2.87464046000000      1.36405513000000
  O   0.00294454000000      1.97618010000000      2.31890356000000
  H   -0.82664150000000      1.59687540000000      2.66782195000000
  C   3.43527232000000      0.12038131000000     -0.95903861000000
  H   4.33987058000000     -0.37277197000000     -1.34212418000000
  H   -0.82072304000000      3.74452429000000      1.59734904000000
