21
Coordinates from ORCA-job 9_16_orca
  C   -1.40982765000000      0.17084778000000     -0.62323967000000
  C   -2.10937551000000     -0.87429179000000     -1.21461873000000
  C   -1.76798012000000     -2.19226822000000     -0.91661257000000
  C   -0.84773927000000     -2.44116629000000      0.10255269000000
  C   -0.32444570000000     -0.10104121000000      0.20220836000000
  C   -0.16224817000000     -1.39188693000000      0.68632686000000
  H   -1.68605819000000      1.18102778000000     -0.88049775000000
  H   -2.85117906000000     -0.66477926000000     -1.98731427000000
  H   -2.17795163000000     -3.01822667000000     -1.50717504000000
  H   0.55736528000000     -1.59747220000000      1.45477057000000
  H   -0.58501821000000     -3.46465357000000      0.36313433000000
  Pd  1.27958041000000      0.96652680000000     -0.07946998000000
  O   3.22718506000000      1.31821497000000     -1.10298303000000
  O   2.55151883000000     -0.62501594000000     -0.36242894000000
  O   0.33475259000000      2.78047684000000      0.29074889000000
  C   -0.19322812000000      2.88735677000000      1.37062377000000
  O   0.00112458000000      2.01551965000000      2.32514039000000
  H   -0.81118765000000      1.57260134000000      2.61554193000000
  C   3.39795616000000      0.09344991000000     -0.96779529000000
  H   4.29939609000000     -0.40090771000000     -1.36683371000000
  H   -0.77327363000000      3.75421299000000      1.59162871000000
