21
Coordinates from ORCA-job 9_6_orca
  C   -1.37848229000000      0.15734690000000     -0.70279098000000
  C   -2.20365850000000     -0.88641106000000     -1.17475130000000
  C   -1.94991821000000     -2.19754988000000     -0.80662912000000
  C   -0.94253033000000     -2.43938999000000      0.11689037000000
  C   -0.26090544000000     -0.11122172000000      0.07582286000000
  C   -0.13848082000000     -1.38853459000000      0.58718182000000
  H   -1.61089758000000      1.13759651000000     -1.09775509000000
  H   -3.00107776000000     -0.67726730000000     -1.90334504000000
  H   -2.54830817000000     -3.00452108000000     -1.20338686000000
  H   0.63950938000000     -1.66538285000000      1.28585188000000
  H   -0.70839308000000     -3.48262798000000      0.38239759000000
  Pd  1.31764538000000      0.94923730000000     -0.14278125000000
  O   3.45807068000000      1.44031661000000     -0.97541896000000
  O   2.67002528000000     -0.54624336000000     -0.48173296000000
  O   0.34824587000000      2.74417429000000      0.29652598000000
  C   -0.21421496000000      2.78653805000000      1.36175750000000
  O   -0.00754349000000      1.96019620000000      2.30865436000000
  H   -0.77687416000000      1.61686359000000      2.72078080000000
  C   3.59065696000000      0.21065504000000     -0.92688700000000
  H   4.54003267000000     -0.26821925000000     -1.26188124000000
  H   -0.83174098000000      3.66200204000000      1.54192736000000
