27
Generated by autodE on: 2023-07-10. 
Pd   -2.44659  -1.63153   0.80274
Cl   -4.22706  -2.91186   0.21375
Cl   -1.45858  -3.37397   1.98667
Cl   -3.29440   0.23608  -0.27989
N    -0.89211  -0.34937   1.43289
C    -1.13275   0.12091   2.64055
C    -0.64559   1.34875   3.08813
C     0.07284   2.11701   2.21172
C    -0.05529   0.31409   0.60825
C     0.38803   1.60936   0.94569
H     0.41138   3.10960   2.48430
H    -1.76317  -0.48641   3.27593
H    -0.88378   1.68983   4.08535
C     0.42302  -0.29522  -0.61300
C     1.11689   2.38290  -0.00745
C     1.42729   1.87043  -1.21530
C     1.12571   0.51081  -1.53579
H     1.39438   3.39699   0.25347
H     1.95329   2.46988  -1.94848
C     0.30207  -1.67043  -0.87804
C     1.58287  -0.04969  -2.73988
C     0.78299  -2.19968  -2.05187
C     1.40292  -1.38412  -3.00326
H     2.09782   0.58561  -3.45071
H     1.76277  -1.80931  -3.93149
H    -0.12550  -2.33908  -0.14383
H     0.68054  -3.26158  -2.23046
