38
Coordinates from ORCA-job 1_13_orca
  C   -2.52061799000000     -0.18860811000000      0.46705408000000
  C   -1.95816829000000      1.01281583000000      1.25043878000000
  C   -3.80685349000000     -0.52298568000000      0.81553807000000
  C   -4.72927126000000      0.38943585000000      1.36722933000000
  C   -4.25583465000000      1.56301122000000      1.88547355000000
  C   -2.88454006000000      1.79104304000000      1.93075040000000
  H   -2.14878266000000     -0.79015804000000     -0.44151132000000
  H   -4.14003635000000     -1.49690868000000      0.48492561000000
  H   -2.49461906000000      2.71432810000000      2.36960756000000
  H   -5.79226341000000      0.18658071000000      1.26154998000000
  H   -4.91893860000000      2.30594967000000      2.26932480000000
  C   -0.52356989000000      1.43822647000000      1.34009014000000
  C   0.60963074000000      0.45109966000000      1.73294136000000
  H   -0.48358639000000      2.22369874000000      2.06374620000000
  H   -0.25183456000000      1.85908049000000      0.39497626000000
  C   1.73949837000000      0.55625063000000      0.73789675000000
  H   0.24180586000000     -0.57646109000000      1.78326783000000
  H   1.00331811000000      0.67225595000000      2.73646065000000
  C   1.71835894000000     -0.14928938000000     -0.49008093000000
  C   2.75231958000000      0.14276251000000     -1.38587017000000
  C   3.73361606000000      1.09975280000000     -1.12069114000000
  C   2.82705153000000      1.38765315000000      1.04785371000000
  C   3.77445935000000      1.74937724000000      0.10152375000000
  H   2.81270175000000     -0.40028474000000     -2.32247009000000
  H   4.50484257000000      1.30302763000000     -1.85399696000000
  H   2.91278049000000      1.83657192000000      2.03381713000000
  H   4.55718601000000      2.47492141000000      0.32965870000000
  Pd  0.29352782000000     -1.59933029000000     -0.98606837000000
  Br  -1.41382274000000     -3.62952150000000     -0.81760486000000
  P   1.40890613000000     -3.01138286000000      0.23034341000000
  H   0.85197220000000     -3.57172155000000      1.36385670000000
  C   0.38385111000000     -1.18720408000000     -3.88395500000000
  O   1.57877405000000     -1.67345959000000     -4.22522982000000
  O   -0.38538717000000     -1.65596334000000     -3.09077508000000
  O   -0.03533776000000     -0.09074438000000     -4.50426704000000
  H   2.69983425000000     -2.73551604000000      0.66400390000000
  H   1.64610680000000     -4.13398743000000     -0.54600063000000
  H   0.69065421000000      0.24911758000000     -4.99387681000000
