38
Coordinates from ORCA-job 1_16_orca
  C   -2.46703173000000     -0.13246163000000      0.51655355000000
  C   -1.97720171000000      0.93640076000000      1.20277572000000
  C   -3.80690621000000     -0.50927316000000      0.77168772000000
  C   -4.70363827000000      0.36293811000000      1.32916008000000
  C   -4.23995476000000      1.57152123000000      1.85801509000000
  C   -2.87508089000000      1.79769408000000      1.88292502000000
  H   -2.09125034000000     -0.77225293000000     -0.35159570000000
  H   -4.13758334000000     -1.47883151000000      0.42021538000000
  H   -2.51376124000000      2.71899605000000      2.36382935000000
  H   -5.78029257000000      0.16777347000000      1.27225771000000
  H   -4.93984033000000      2.31758083000000      2.25394911000000
  C   -0.52085030000000      1.40881692000000      1.35796120000000
  C   0.61223865000000      0.43183027000000      1.73909836000000
  H   -0.49176546000000      2.23195789000000      2.11437890000000
  H   -0.21314914000000      1.91526395000000      0.42670177000000
  C   1.74609368000000      0.52824196000000      0.75169165000000
  H   0.23895894000000     -0.58173859000000      1.79467826000000
  H   1.00155358000000      0.66048324000000      2.73611614000000
  C   1.70432279000000     -0.14442193000000     -0.49175512000000
  C   2.73827373000000      0.13629522000000     -1.38790227000000
  C   3.71486193000000      1.09695967000000     -1.12824436000000
  C   2.80450832000000      1.39820678000000      1.04141808000000
  C   3.76907324000000      1.72281684000000      0.10085149000000
  H   2.78266617000000     -0.39115268000000     -2.32978602000000
  H   4.48166114000000      1.30108599000000     -1.86459043000000
  H   2.89256571000000      1.83995590000000      2.03027921000000
  H   4.54246181000000      2.45254194000000      0.32294155000000
  Pd  0.30384379000000     -1.58357532000000     -0.96293796000000
  Br  -1.42744589000000     -3.59890587000000     -0.79248490000000
  P   1.40158909000000     -2.99531543000000      0.20835863000000
  H   0.87693053000000     -3.58589040000000      1.37088317000000
  C   0.44442268000000     -1.23129482000000     -3.89912868000000
  O   1.52479811000000     -1.64278840000000     -4.21873560000000
  O   -0.40831549000000     -1.67395058000000     -3.03070857000000
  O   -0.05701518000000     -0.07438002000000     -4.48979253000000
  H   2.72307505000000     -2.73016293000000      0.63912522000000
  H   1.64630063000000     -4.14549595000000     -0.56644884000000
  H   0.69841346000000      0.26373349000000     -4.99422699000000
