38
Coordinates from ORCA-job 1_18_orca
  C   -2.44150026000000     -0.13072865000000      0.51345320000000
  C   -1.92124612000000      0.97669057000000      1.22730192000000
  C   -3.76858406000000     -0.48071001000000      0.62152506000000
  C   -4.68920940000000      0.37749903000000      1.22964022000000
  C   -4.26427365000000      1.57418452000000      1.75397711000000
  C   -2.88885499000000      1.81528591000000      1.79940271000000
  H   -1.92874226000000     -0.71658393000000     -0.22759384000000
  H   -4.08292927000000     -1.44058902000000      0.24962482000000
  H   -2.56572895000000      2.70529811000000      2.32178225000000
  H   -5.73834436000000      0.12973400000000      1.19016867000000
  H   -4.96830103000000      2.30700887000000      2.13824283000000
  C   -0.47461753000000      1.45445593000000      1.44533510000000
  C   0.63958059000000      0.39487845000000      1.78942054000000
  H   -0.50989745000000      2.17017618000000      2.29034992000000
  H   -0.11843165000000      2.05015196000000      0.59109200000000
  C   1.75099393000000      0.48995522000000      0.78110543000000
  H   0.23270146000000     -0.61851392000000      1.84334256000000
  H   1.03938471000000      0.61613156000000      2.78709669000000
  C   1.67379927000000     -0.14736323000000     -0.47566532000000
  C   2.67384212000000      0.14773028000000     -1.40194255000000
  C   3.66820546000000      1.08712447000000     -1.14693599000000
  C   2.78586784000000      1.39594475000000      1.04886700000000
  C   3.74622044000000      1.69383428000000      0.09437255000000
  H   2.68604431000000     -0.36197638000000     -2.35572756000000
  H   4.40652597000000      1.31374624000000     -1.90776712000000
  H   2.88368671000000      1.83324813000000      2.04038474000000
  H   4.53017366000000      2.41063212000000      0.30963752000000
  Pd  0.26366202000000     -1.56411981000000     -0.91586537000000
  Br  -1.48776889000000     -3.54513561000000     -0.66177765000000
  P   1.44825093000000     -3.01338503000000      0.18483875000000
  H   0.99074706000000     -3.62196284000000      1.36485114000000
  C   0.39140544000000     -1.26990610000000     -3.86338322000000
  O   1.46607912000000     -1.63311456000000     -4.22602794000000
  O   -0.41135782000000     -1.76462458000000     -3.00006405000000
  O   -0.09103576000000     -0.08897684000000     -4.41136924000000
  H   2.79093280000000     -2.73452130000000      0.53059787000000
  H   1.64514061000000     -4.13588538000000     -0.64737173000000
  H   0.63336568000000      0.30251954000000     -4.91145026000000
