38
Coordinates from ORCA-job 1_19_orca
  C   -2.44929632000000     -0.14610117000000      0.49800573000000
  C   -1.93691395000000      0.96792792000000      1.22059899000000
  C   -3.77573416000000     -0.48934001000000      0.67756311000000
  C   -4.69609256000000      0.37034596000000      1.25972782000000
  C   -4.25190870000000      1.57801069000000      1.78890396000000
  C   -2.89223373000000      1.80720194000000      1.82573845000000
  H   -1.99092189000000     -0.72969867000000     -0.27002217000000
  H   -4.10156024000000     -1.45406323000000      0.30490163000000
  H   -2.54729381000000      2.71756048000000      2.33512430000000
  H   -5.75705041000000      0.14270307000000      1.21522949000000
  H   -4.96047205000000      2.31074742000000      2.17709997000000
  C   -0.49412609000000      1.43408658000000      1.41781730000000
  C   0.63129787000000      0.40692740000000      1.77435784000000
  H   -0.50288169000000      2.19216234000000      2.23970416000000
  H   -0.14432081000000      2.00930110000000      0.53715997000000
  C   1.74822059000000      0.50373677000000      0.77269405000000
  H   0.23794773000000     -0.60574035000000      1.82869140000000
  H   1.03029574000000      0.62832459000000      2.77077874000000
  C   1.68367476000000     -0.14587834000000     -0.47928404000000
  C   2.69569519000000      0.14400244000000     -1.39554957000000
  C   3.68141551000000      1.09346536000000     -1.14179174000000
  C   2.79350122000000      1.39530474000000      1.04659494000000
  C   3.75399928000000      1.70431235000000      0.09630800000000
  H   2.71905195000000     -0.37005271000000     -2.34592843000000
  H   4.43196775000000      1.30950858000000     -1.89188848000000
  H   2.88971820000000      1.83509184000000      2.03632559000000
  H   4.53504375000000      2.42573961000000      0.31347851000000
  Pd  0.27910925000000     -1.56695314000000     -0.93132630000000
  Br  -1.46716966000000     -3.56592842000000     -0.70363587000000
  P   1.43129759000000     -3.00591708000000      0.19146941000000
  H   0.95340269000000     -3.61151225000000      1.36755739000000
  C   0.38374193000000     -1.25296141000000     -3.86942897000000
  O   1.50864832000000     -1.64417961000000     -4.23151443000000
  O   -0.41168988000000     -1.73972049000000     -3.00888944000000
  O   -0.07953686000000     -0.08477162000000     -4.43788644000000
  H   2.76958129000000     -2.73244831000000      0.56469620000000
  H   1.64502064000000     -4.13988247000000     -0.62267297000000
  H   0.65350416000000      0.29089914000000     -4.93586746000000
