38
Coordinates from ORCA-job 1_4_orca
  C   -2.63591387000000     -0.40816785000000      0.49888920000000
  C   -2.01030731000000      0.80285834000000      1.28004119000000
  C   -3.89034305000000     -0.56920222000000      1.06737355000000
  C   -4.69199084000000      0.39099363000000      1.74660067000000
  C   -4.17823555000000      1.55048086000000      2.23058374000000
  C   -2.80729021000000      1.73990030000000      2.04678448000000
  H   -2.46686248000000     -0.85467622000000     -0.25905505000000
  H   -4.30084292000000     -1.54193988000000      0.96054928000000
  H   -2.36362253000000      2.61797750000000      2.55544242000000
  H   -5.77639563000000      0.25145134000000      1.72234498000000
  H   -4.79350376000000      2.33231117000000      2.63902063000000
  C   -0.62780976000000      1.38085277000000      0.95322806000000
  C   0.53549014000000      0.52080122000000      1.50180108000000
  H   -0.49444468000000      2.41238838000000      1.31540486000000
  H   -0.61895940000000      1.44755066000000     -0.13584361000000
  C   1.77264165000000      0.55333741000000      0.67502863000000
  H   0.17084894000000     -0.49652101000000      1.59740439000000
  H   0.74646782000000      0.87346405000000      2.51039776000000
  C   1.80762195000000     -0.11036055000000     -0.58795960000000
  C   2.95051141000000      0.06741881000000     -1.36759623000000
  C   3.89735866000000      1.04174737000000     -1.06384211000000
  C   2.75018580000000      1.50497077000000      0.97276847000000
  C   3.83926587000000      1.71383774000000      0.14554529000000
  H   3.06504196000000     -0.52467732000000     -2.27303732000000
  H   4.69822175000000      1.24226082000000     -1.75936097000000
  H   2.77775646000000      1.88713961000000      1.99455304000000
  H   4.51887919000000      2.52091739000000      0.36745351000000
  Pd  0.35072208000000     -1.60729062000000     -1.22467237000000
  Br  -1.24764430000000     -3.63066108000000     -1.30530379000000
  P   1.27734352000000     -2.96069558000000      0.32665022000000
  H   0.47510827000000     -3.42465669000000      1.37220478000000
  C   0.56961336000000     -1.08479029000000     -3.97430732000000
  O   1.63368228000000     -1.58790663000000     -4.15177393000000
  O   -0.23179250000000     -1.25492247000000     -2.97145526000000
  O   0.21475734000000      0.00228673000000     -4.78182412000000
  H   2.46145203000000     -2.70755160000000      1.03885767000000
  H   1.65515826000000     -4.19818638000000     -0.24672968000000
  H   0.96720226000000      0.11840048000000     -5.41625530000000
