38
Coordinates from ORCA-job 1_8_orca
  C   -2.59732062000000     -0.13915621000000      0.58065598000000
  C   -2.00646449000000      0.86023392000000      1.22802602000000
  C   -3.90508264000000     -0.52923139000000      0.88584918000000
  C   -4.68719844000000      0.34987297000000      1.55782451000000
  C   -4.20172558000000      1.54979227000000      2.07012810000000
  C   -2.83219376000000      1.71138255000000      1.97788206000000
  H   -2.36669764000000     -0.76585857000000     -0.43338005000000
  H   -4.21941728000000     -1.56967126000000      0.78818636000000
  H   -2.44611113000000      2.61325718000000      2.48576160000000
  H   -5.76740739000000      0.25050159000000      1.39760044000000
  H   -4.89871031000000      2.35101392000000      2.43159697000000
  C   -0.55728238000000      1.38714933000000      1.15995090000000
  C   0.60327866000000      0.47942189000000      1.63874705000000
  H   -0.46561254000000      2.38055199000000      1.73479568000000
  H   -0.46345372000000      1.64587660000000      0.08674758000000
  C   1.79083031000000      0.54804055000000      0.70187931000000
  H   0.19872062000000     -0.52869039000000      1.68478869000000
  H   0.88423302000000      0.78936726000000      2.65447621000000
  C   1.74570415000000     -0.12062699000000     -0.55977360000000
  C   2.85461296000000      0.11673130000000     -1.38493345000000
  C   3.84032145000000      1.07000421000000     -1.08483646000000
  C   2.79751683000000      1.47649991000000      1.02011724000000
  C   3.82597008000000      1.74515831000000      0.12498301000000
  H   2.94509868000000     -0.46406818000000     -2.29202404000000
  H   4.60696054000000      1.29607532000000     -1.82674948000000
  H   2.89030905000000      1.84067194000000      2.05648323000000
  H   4.55451575000000      2.51725868000000      0.35802502000000
  Pd  0.30677611000000     -1.67881833000000     -1.07739261000000
  Br  -1.33680396000000     -3.67927793000000     -1.02974257000000
  P   1.33562238000000     -2.96725114000000      0.26395359000000
  H   0.66630493000000     -3.50430081000000      1.38561741000000
  C   0.50341805000000     -1.14922633000000     -3.94697665000000
  O   1.60295521000000     -1.62300767000000     -4.19211760000000
  O   -0.38404930000000     -1.52626974000000     -3.05083011000000
  O   0.07612421000000     -0.05733915000000     -4.63803370000000
  H   2.61527108000000     -2.73883465000000      0.86661733000000
  H   1.66751287000000     -4.16619447000000     -0.41976675000000
  H   0.81777634000000      0.23222342000000     -5.20154248000000
