38
Coordinates from ORCA-job 1_9_orca
  C   -2.58333624000000     -0.20790455000000      0.41911674000000
  C   -1.94177520000000      0.97170149000000      1.27826170000000
  C   -3.85023989000000     -0.52488594000000      0.78553644000000
  C   -4.75217242000000      0.37951737000000      1.44940067000000
  C   -4.24394159000000      1.55574748000000      1.96616205000000
  C   -2.86996767000000      1.76052206000000      1.96267476000000
  H   -2.30261796000000     -0.67659448000000     -0.44779277000000
  H   -4.15185766000000     -1.55662554000000      0.65331909000000
  H   -2.49552722000000      2.62494012000000      2.42534361000000
  H   -5.75380084000000      0.24092250000000      1.22301171000000
  H   -4.93368655000000      2.33260256000000      2.29608478000000
  C   -0.51566364000000      1.43956243000000      1.28877424000000
  C   0.63839333000000      0.45291495000000      1.71787958000000
  H   -0.45785956000000      2.31247385000000      1.98328885000000
  H   -0.35244078000000      1.77503777000000      0.25998494000000
  C   1.78373080000000      0.54592329000000      0.73251859000000
  H   0.22237614000000     -0.55338132000000      1.74535728000000
  H   0.97358079000000      0.72686158000000      2.73742252000000
  C   1.71936884000000     -0.12764969000000     -0.53015376000000
  C   2.79007355000000      0.14764601000000     -1.38527915000000
  C   3.79378172000000      1.08942466000000     -1.11053872000000
  C   2.82689490000000      1.45353354000000      1.05065891000000
  C   3.81228660000000      1.76132841000000      0.11539715000000
  H   2.86490321000000     -0.42699672000000     -2.31031203000000
  H   4.54136686000000      1.32159298000000     -1.85901187000000
  H   2.94842137000000      1.81398362000000      2.07533442000000
  H   4.57063295000000      2.50816549000000      0.34740419000000
  Pd  0.25686566000000     -1.67664255000000     -1.03468842000000
  Br  -1.39244360000000     -3.69154528000000     -0.86031818000000
  P   1.39353870000000     -2.99288723000000      0.24502746000000
  H   0.79322839000000     -3.55058985000000      1.38020751000000
  C   0.45151570000000     -1.25023441000000     -3.89793222000000
  O   1.54252660000000     -1.61728920000000     -4.20648660000000
  O   -0.40995792000000     -1.67187915000000     -3.09941671000000
  O   -0.01463344000000     -0.07538251000000     -4.54354467000000
  H   2.69536845000000     -2.75341458000000      0.74285309000000
  H   1.66739211000000     -4.14286163000000     -0.52403747000000
  H   0.73066038000000      0.28230867000000     -5.06820024000000
