38
Coordinates from ORCA-job 6_13_orca
  Pd  0.46035116000000      0.26595549000000     -0.13618786000000
  O   1.83434201000000      1.37158364000000      0.62403687000000
  C   1.62778316000000      2.58203430000000      0.33226287000000
  O   0.59472221000000      2.95506770000000     -0.23513483000000
  C   2.72069121000000      3.57733793000000      0.63567659000000
  H   2.29348734000000      4.49657936000000      1.03897919000000
  H   3.20145318000000      3.90880832000000     -0.30207927000000
  H   3.54023672000000      3.25734857000000      1.29037409000000
  N   -1.37335404000000     -0.75894149000000     -1.03028179000000
  C   -1.17283944000000     -1.94894759000000     -1.92411434000000
  H   -0.49931172000000     -1.61731966000000     -2.74861387000000
  H   -2.17956644000000     -2.35500274000000     -2.17985674000000
  H   -0.65888574000000     -2.74867351000000     -1.36153805000000
  C   -2.06286036000000      0.28542726000000     -1.83334497000000
  H   -2.18504753000000      1.20188792000000     -1.21077485000000
  H   -3.06093623000000     -0.07651899000000     -2.15001067000000
  H   -1.43442054000000      0.48247065000000     -2.70482008000000
  C   -1.70633063000000     -1.01708774000000      1.51245300000000
  C   -1.62278518000000     -2.15139295000000      2.31593008000000
  C   -1.19456719000000     -2.00912832000000      3.63935221000000
  C   -1.08348051000000     -0.72402784000000      4.20772334000000
  C   -1.21427213000000      0.44545726000000      3.46042260000000
  C   -1.39989720000000      0.23053007000000      2.10104343000000
  H   -0.87258709000000     -0.60687119000000      5.25901972000000
  H   -1.23805255000000      1.48713559000000      3.83612199000000
  H   -1.72727107000000     -3.15744584000000      1.85444620000000
  H   -1.11869989000000     -2.87015031000000      4.29491556000000
  H   -1.76882487000000      3.04464436000000      1.29351654000000
  C   -2.25043851000000     -1.14717727000000      0.07969739000000
  H   -3.12973244000000     -0.50060547000000      0.06572402000000
  H   -2.51915146000000     -2.20576059000000     -0.08245506000000
  O   2.20141885000000     -0.34305092000000     -1.29114894000000
  C   2.09431134000000     -0.63398503000000     -2.65527510000000
  O   1.30014950000000     -0.89936511000000     -3.37404855000000
  C   3.64326484000000     -0.48786275000000     -3.02314321000000
  H   3.99684311000000     -1.41310823000000     -3.45637095000000
  H   4.43900747000000     -0.12546801000000     -2.26096798000000
  H   3.55887753000000      0.18959506000000     -3.85103474000000
