38
Coordinates from ORCA-job 6_19_orca
  Pd  0.51928116000000      0.20453934000000     -0.24536578000000
  O   1.81197015000000      1.34771249000000      0.64806411000000
  C   1.57788717000000      2.59694070000000      0.32278276000000
  O   0.60647525000000      3.00393417000000     -0.29102754000000
  C   2.72110108000000      3.58707546000000      0.63595453000000
  H   2.30974734000000      4.50710112000000      1.07855612000000
  H   3.21209396000000      3.86486090000000     -0.31802133000000
  H   3.47825733000000      3.15582742000000      1.29779231000000
  N   -1.31190920000000     -0.76089292000000     -1.01461373000000
  C   -1.08726171000000     -1.97162286000000     -1.80021025000000
  H   -0.48413272000000     -1.73149142000000     -2.65161345000000
  H   -2.02439336000000     -2.35123317000000     -2.16756656000000
  H   -0.59855494000000     -2.74249421000000     -1.22043077000000
  C   -1.96273108000000      0.25127987000000     -1.85428470000000
  H   -2.13823407000000      1.17132556000000     -1.30070085000000
  H   -2.93887404000000     -0.10509793000000     -2.16312108000000
  H   -1.39340791000000      0.46515614000000     -2.74605090000000
  C   -1.73277299000000     -0.87464364000000      1.51521485000000
  C   -1.64042471000000     -2.02955817000000      2.32153225000000
  C   -1.33180111000000     -1.92810947000000      3.66767882000000
  C   -1.09955552000000     -0.67811781000000      4.20906820000000
  C   -1.15378784000000      0.46911924000000      3.41044938000000
  C   -1.50540462000000      0.41844834000000      2.06634170000000
  H   -0.87331414000000     -0.63204549000000      5.27227343000000
  H   -0.99891500000000      1.43231672000000      3.84869853000000
  H   -1.94830127000000     -2.99537577000000      1.90945413000000
  H   -1.21399734000000     -2.81574084000000      4.27279869000000
  H   -1.60474257000000      2.16810381000000      1.33157665000000
  C   -2.24318742000000     -1.05347194000000      0.11682678000000
  H   -3.13374632000000     -0.44653259000000     -0.00789523000000
  H   -2.58117195000000     -2.07151813000000     -0.03087832000000
  O   2.00313373000000     -0.79090975000000     -1.23671332000000
  C   2.11072444000000     -0.62189958000000     -2.55936024000000
  O   1.28044645000000     -0.43290966000000     -3.36945056000000
  C   3.59448451000000     -0.47159135000000     -3.11975690000000
  H   4.08475984000000     -1.35298257000000     -3.57085644000000
  H   4.24268122000000     -0.14263916000000     -2.31569642000000
  H   3.52975360000000      0.33023388000000     -3.87353404000000
