38
Coordinates from ORCA-job 6_1_orca
  Pd  0.39810838000000      0.29155031000000     -0.24346768000000
  O   1.97019147000000      1.29213229000000      0.65693782000000
  C   1.58601392000000      2.65554490000000      0.29113044000000
  O   0.67151530000000      2.85217032000000     -0.16648267000000
  C   2.73638991000000      3.65814783000000      0.60309520000000
  H   2.24492342000000      4.54332525000000      1.02791258000000
  H   3.17236646000000      3.95885613000000     -0.33825979000000
  H   3.51034805000000      3.32436571000000      1.27071677000000
  N   -1.39385678000000     -0.74454768000000     -1.07170104000000
  C   -1.21065894000000     -1.83457091000000     -2.01706787000000
  H   -0.72180405000000     -1.49437508000000     -2.90257971000000
  H   -2.18808324000000     -2.19207390000000     -2.35392717000000
  H   -0.65208968000000     -2.62344588000000     -1.56509434000000
  C   -2.12075400000000      0.34582556000000     -1.74213366000000
  H   -2.25321022000000      1.19538008000000     -1.12221323000000
  H   -3.09487436000000     -0.03273222000000     -2.06716030000000
  H   -1.56614929000000      0.63122330000000     -2.63090571000000
  C   -1.56858781000000     -1.03862219000000      1.41906093000000
  C   -1.21374650000000     -2.17165870000000      2.27168163000000
  C   -1.00441752000000     -1.98209471000000      3.60746603000000
  C   -1.06353316000000     -0.74509959000000      4.16538078000000
  C   -1.43953443000000      0.37472118000000      3.36000988000000
  C   -1.61441979000000      0.15621440000000      2.05297978000000
  H   -0.88600957000000     -0.58997241000000      5.22758273000000
  H   -1.61269432000000      1.27281820000000      3.88239015000000
  H   -1.33123668000000     -3.15155694000000      1.90839821000000
  H   -0.92706453000000     -2.84940065000000      4.26059843000000
  H   -2.00099165000000      3.44571157000000      1.37716528000000
  C   -2.21164146000000     -1.27385841000000      0.12343274000000
  H   -3.18461837000000     -0.77854891000000      0.14278457000000
  H   -2.46957862000000     -2.31239635000000     -0.02211347000000
  O   1.94879319000000     -0.41925686000000     -1.24689193000000
  C   2.21033615000000     -0.46477557000000     -2.53571156000000
  O   1.45726981000000     -0.45404450000000     -3.33687495000000
  C   3.71416907000000     -0.64374464000000     -2.92994347000000
  H   3.80891709000000     -1.70622343000000     -3.22807279000000
  H   4.42649587000000     -0.41237542000000     -2.24815242000000
  H   3.87666105000000     -0.08285872000000     -3.87621225000000
