38
Coordinates from ORCA-job 6_22_orca
  Pd  0.44259504000000      0.23145059000000     -0.24907493000000
  O   1.82971873000000      1.36171616000000      0.59346202000000
  C   1.62598076000000      2.59821227000000      0.30333157000000
  O   0.58709350000000      2.93976190000000     -0.26326494000000
  C   2.70345491000000      3.57108032000000      0.63528051000000
  H   2.31556089000000      4.48865028000000      1.06750944000000
  H   3.19230970000000      3.85996089000000     -0.29403903000000
  H   3.45926961000000      3.16443826000000      1.29260073000000
  N   -1.28949908000000     -0.73454412000000     -1.00416877000000
  C   -1.07740673000000     -1.96735009000000     -1.82332539000000
  H   -0.46417145000000     -1.70904883000000     -2.69611688000000
  H   -2.06526664000000     -2.33994083000000     -2.18547950000000
  H   -0.57463652000000     -2.73288325000000     -1.20584005000000
  C   -1.96662084000000      0.27533252000000     -1.86239995000000
  H   -2.12403709000000      1.19275158000000     -1.28137985000000
  H   -2.95165834000000     -0.12447462000000     -2.16470291000000
  H   -1.36460172000000      0.48831914000000     -2.74977055000000
  C   -1.73223843000000     -0.79106138000000      1.48487190000000
  C   -1.63541500000000     -1.94577935000000      2.29605922000000
  C   -1.26451557000000     -1.90969471000000      3.63046678000000
  C   -1.09999744000000     -0.66017361000000      4.18466294000000
  C   -1.19760636000000      0.49231069000000      3.39313100000000
  C   -1.51103721000000      0.56334840000000      2.00857685000000
  H   -0.86924204000000     -0.58729547000000      5.23697267000000
  H   -1.00626042000000      1.42746710000000      3.88153780000000
  H   -1.86808431000000     -2.94069503000000      1.91283147000000
  H   -1.22642799000000     -2.79737844000000      4.26029830000000
  H   -1.58933338000000      1.65107449000000      1.48920679000000
  C   -2.24277245000000     -1.06172227000000      0.09744513000000
  H   -3.14293859000000     -0.45929869000000     -0.00087458000000
  H   -2.58445081000000     -2.10300096000000      0.00125256000000
  O   1.96947505000000     -0.76878151000000     -1.32258460000000
  C   2.17096961000000     -0.58865300000000     -2.55946154000000
  O   1.22867569000000     -0.36517559000000     -3.31941566000000
  C   3.57190587000000     -0.48325687000000     -3.05778189000000
  H   3.98329228000000     -1.36574911000000     -3.52377137000000
  H   4.27329245000000     -0.15575665000000     -2.28700350000000
  H   3.58263676000000      0.25893309000000     -3.85235113000000
