38
Coordinates from ORCA-job 6_24_orca
  Pd  0.43811750000000      0.22686628000000     -0.26372406000000
  O   1.84911697000000      1.34356180000000      0.58928612000000
  C   1.60451295000000      2.58317434000000      0.28868874000000
  O   0.56786845000000      2.93487369000000     -0.25176986000000
  C   2.70903762000000      3.57529600000000      0.63461929000000
  H   2.30637559000000      4.48431636000000      1.06658076000000
  H   3.18842210000000      3.85659315000000     -0.29259711000000
  H   3.45923648000000      3.15995163000000      1.29644811000000
  N   -1.29334449000000     -0.73576223000000     -1.02083696000000
  C   -1.08105878000000     -1.95511340000000     -1.82986547000000
  H   -0.46841734000000     -1.70982521000000     -2.69007086000000
  H   -2.05206106000000     -2.33243267000000     -2.17882366000000
  H   -0.58512600000000     -2.71448110000000     -1.22773578000000
  C   -1.96461972000000      0.27603184000000     -1.86102192000000
  H   -2.12404362000000      1.19084855000000     -1.28647344000000
  H   -2.94503082000000     -0.11180335000000     -2.16716308000000
  H   -1.36594341000000      0.49743221000000     -2.73886496000000
  C   -1.72882911000000     -0.76304408000000      1.48026258000000
  C   -1.61286511000000     -1.92556184000000      2.28340569000000
  C   -1.27911277000000     -1.88942933000000      3.62390498000000
  C   -1.08562448000000     -0.63263382000000      4.16322274000000
  C   -1.19683900000000      0.52498828000000      3.36974873000000
  C   -1.49844313000000      0.46147496000000      2.04936599000000
  H   -0.87036210000000     -0.56617622000000      5.23194442000000
  H   -1.00669662000000      1.44481171000000      3.89388844000000
  H   -1.84313652000000     -2.91770978000000      1.89188033000000
  H   -1.21542948000000     -2.79043502000000      4.24168084000000
  H   -1.58533443000000      1.52376408000000      1.51697393000000
  C   -2.24646045000000     -1.05191601000000      0.10453251000000
  H   -3.15275872000000     -0.46081220000000     -0.01250408000000
  H   -2.56975142000000     -2.09828513000000      0.00934228000000
  O   1.96571383000000     -0.73667803000000     -1.26639196000000
  C   2.13301181000000     -0.54617378000000     -2.55644978000000
  O   1.21740839000000     -0.40540054000000     -3.34380768000000
  C   3.59639525000000     -0.47119925000000     -3.05145443000000
  H   3.96524135000000     -1.39184370000000     -3.50670036000000
  H   4.27271851000000     -0.16044792000000     -2.27723988000000
  H   3.58919824000000      0.25319793000000     -3.84862773000000
