38
Coordinates from ORCA-job 6_25_orca
  Pd  0.43827603000000      0.23224686000000     -0.26703140000000
  O   1.85576027000000      1.33467389000000      0.57590336000000
  C   1.60553377000000      2.57164350000000      0.29157506000000
  O   0.55320506000000      2.92842968000000     -0.24837006000000
  C   2.70389292000000      3.57061363000000      0.63322609000000
  H   2.30103225000000      4.48368028000000      1.06648789000000
  H   3.18929569000000      3.85781303000000     -0.29537398000000
  H   3.45870193000000      3.15815733000000      1.29868173000000
  N   -1.30053510000000     -0.73609424000000     -1.02783702000000
  C   -1.08239218000000     -1.94999874000000     -1.83536681000000
  H   -0.46849617000000     -1.70696332000000     -2.69290513000000
  H   -2.04990515000000     -2.32683342000000     -2.17763918000000
  H   -0.58622917000000     -2.70670406000000     -1.23483217000000
  C   -1.96445418000000      0.27924606000000     -1.86169967000000
  H   -2.12318173000000      1.19329682000000     -1.28661824000000
  H   -2.94190379000000     -0.10788591000000     -2.16827105000000
  H   -1.36334138000000      0.50381655000000     -2.73580477000000
  C   -1.72840983000000     -0.77813034000000      1.47621032000000
  C   -1.60346672000000     -1.91482947000000      2.27651684000000
  C   -1.27547197000000     -1.87450850000000      3.61588903000000
  C   -1.08148066000000     -0.61756954000000      4.15773052000000
  C   -1.19161942000000      0.52739619000000      3.38841521000000
  C   -1.49755081000000      0.46048807000000      2.04720672000000
  H   -0.87007273000000     -0.55117038000000      5.22108152000000
  H   -1.01106794000000      1.45246077000000      3.89734999000000
  H   -1.82363735000000     -2.90015271000000      1.88156136000000
  H   -1.21287401000000     -2.78165435000000      4.22963726000000
  H   -1.58430403000000      1.42449310000000      1.54079770000000
  C   -2.24585476000000     -1.04494597000000      0.10243755000000
  H   -3.15783749000000     -0.46347065000000     -0.01806438000000
  H   -2.56190931000000     -2.09654520000000      0.01729731000000
  O   1.96339573000000     -0.71645572000000     -1.26002425000000
  C   2.12213346000000     -0.53357378000000     -2.54006556000000
  O   1.20998650000000     -0.41042586000000     -3.35491136000000
  C   3.59254826000000     -0.47120925000000     -3.04197859000000
  H   3.94530247000000     -1.40568089000000     -3.49238210000000
  H   4.27979635000000     -0.16319229000000     -2.26658529000000
  H   3.60059868000000      0.24850651000000     -3.84998555000000
