38
Coordinates from ORCA-job 6_3_orca
  Pd  0.41085037000000      0.29598112000000     -0.22952961000000
  O   1.95201124000000      1.30976144000000      0.63957773000000
  C   1.63810806000000      2.61378592000000      0.32661766000000
  O   0.62497961000000      2.87180813000000     -0.19091978000000
  C   2.73236222000000      3.65711552000000      0.60357036000000
  H   2.24883379000000      4.54186170000000      1.02826554000000
  H   3.17679267000000      3.95901002000000     -0.33843575000000
  H   3.51357988000000      3.32035623000000      1.27282061000000
  N   -1.40031794000000     -0.74967864000000     -1.07364591000000
  C   -1.21103557000000     -1.84362052000000     -2.01545385000000
  H   -0.70995102000000     -1.50026923000000     -2.89514043000000
  H   -2.18829980000000     -2.19856583000000     -2.34228960000000
  H   -0.65179767000000     -2.63228640000000     -1.55157215000000
  C   -2.11911798000000      0.34104256000000     -1.75035281000000
  H   -2.24947695000000      1.19959222000000     -1.12477457000000
  H   -3.09115369000000     -0.03696771000000     -2.07034232000000
  H   -1.55778487000000      0.62146474000000     -2.63573437000000
  C   -1.57113897000000     -1.04411885000000      1.42932213000000
  C   -1.24067431000000     -2.16288344000000      2.27057389000000
  C   -1.00831049000000     -1.98966103000000      3.61026663000000
  C   -1.06955974000000     -0.73833380000000      4.16453483000000
  C   -1.42419469000000      0.37254962000000      3.36918115000000
  C   -1.60263817000000      0.15978840000000      2.05801060000000
  H   -0.88369779000000     -0.59081728000000      5.22684644000000
  H   -1.59431824000000      1.28204471000000      3.87892040000000
  H   -1.35417213000000     -3.15638775000000      1.90681249000000
  H   -0.94250082000000     -2.84885617000000      4.26290780000000
  H   -1.98949032000000      3.43649139000000      1.37168641000000
  C   -2.21409075000000     -1.26655203000000      0.12021770000000
  H   -3.18082602000000     -0.76345978000000      0.14072532000000
  H   -2.47449473000000     -2.30801579000000     -0.02542626000000
  O   1.96202664000000     -0.40084889000000     -1.25139079000000
  C   2.23853684000000     -0.48462243000000     -2.50262573000000
  O   1.41809002000000     -0.48679531000000     -3.37518514000000
  C   3.70653232000000     -0.63369281000000     -2.93968671000000
  H   3.81709173000000     -1.68618340000000     -3.24118996000000
  H   4.43407980000000     -0.39266854000000     -2.24516510000000
  H   3.85896494000000     -0.06767247000000     -3.87725981000000
