21
Coordinates from ORCA-job 2_0_orca
  Sc  1.75051552000000     -1.44287071000000     -1.40452833000000
  C   0.38758206000000     -0.64524094000000      0.20830225000000
  N   -0.48918322000000     -1.37856707000000      0.91936634000000
  C   -0.83900870000000     -0.73671702000000      2.07474537000000
  C   -0.18221673000000      0.44826425000000      2.06654728000000
  N   0.59202462000000      0.47042075000000      0.93998113000000
  C   1.47030313000000      1.57350903000000      0.59651105000000
  H   1.71883441000000      2.21304569000000      1.44127342000000
  H   0.99974946000000      2.20576502000000     -0.15194124000000
  H   2.41665702000000      1.21232491000000      0.19927934000000
  C   -1.00806288000000     -2.69060555000000      0.56495363000000
  H   -0.54739604000000     -3.04470890000000     -0.35451079000000
  H   -2.08292313000000     -2.63713697000000      0.40685003000000
  H   -0.79133060000000     -3.40672374000000      1.35478930000000
  H   -1.51662400000000     -1.15439163000000      2.80048993000000
  H   -0.21750561000000      1.24040890000000      2.79506422000000
  C   -0.37673924000000      1.65116408000000     -2.82368458000000
  H   -1.12699299000000      1.50065419000000     -3.60473075000000
  H   -0.05624709000000      2.68848736000000     -2.91317023000000
  H   -0.87144628000000      1.47612927000000     -1.86919273000000
  H   0.77003349000000      0.45680268000000     -3.24640146000000
