21
Coordinates from ORCA-job 2_1_orca
  Sc  1.71353563000000     -1.36728450000000     -1.45087285000000
  C   0.41267286000000     -0.64387725000000      0.21578678000000
  N   -0.48631795000000     -1.37276305000000      0.92708912000000
  C   -0.82910226000000     -0.72998820000000      2.07491931000000
  C   -0.17330180000000      0.42435910000000      2.10693118000000
  N   0.56466355000000      0.48574013000000      0.97031239000000
  C   1.46590215000000      1.60800670000000      0.57927861000000
  H   1.65333624000000      2.23314418000000      1.46006703000000
  H   1.00589642000000      2.19524497000000     -0.17068006000000
  H   2.41904940000000      1.22518627000000      0.25241193000000
  C   -1.00242712000000     -2.68195600000000      0.55777281000000
  H   -0.56013552000000     -3.01926811000000     -0.37208521000000
  H   -2.08009040000000     -2.63975359000000      0.43103371000000
  H   -0.76065427000000     -3.40868277000000      1.33503909000000
  H   -1.49530944000000     -1.17227527000000      2.81343474000000
  H   -0.18799908000000      1.22257597000000      2.82498691000000
  C   -0.28528284000000      1.51497464000000     -2.93470174000000
  H   -1.07006369000000      1.53355538000000     -3.62398477000000
  H   0.10198596000000      2.62520539000000     -2.92861022000000
  H   -0.81929275000000      1.49905203000000     -1.88818817000000
  H   0.41365468000000      0.47057805000000     -3.18074498000000
