21
Coordinates from ORCA-job 2_4_orca
  Sc  1.63813768000000     -1.21938996000000     -1.54669427000000
  C   0.42139261000000     -0.60843169000000      0.26049517000000
  N   -0.46742589000000     -1.36372685000000      0.93195561000000
  C   -0.81630536000000     -0.75203244000000      2.09954720000000
  C   -0.14626185000000      0.41479973000000      2.14098573000000
  N   0.57848084000000      0.50611263000000      0.98343016000000
  C   1.42615123000000      1.61862668000000      0.62399497000000
  H   1.52634687000000      2.28025947000000      1.48023601000000
  H   1.00756024000000      2.19254425000000     -0.23087451000000
  H   2.42846111000000      1.25312501000000      0.35465789000000
  C   -0.98550425000000     -2.66898048000000      0.55198480000000
  H   -0.58526570000000     -2.96684995000000     -0.41242770000000
  H   -2.07459286000000     -2.64134877000000      0.47849050000000
  H   -0.69937505000000     -3.41091416000000      1.29355348000000
  H   -1.46235635000000     -1.21267028000000      2.83894120000000
  H   -0.13462838000000      1.19734658000000      2.90437223000000
  C   -0.27298196000000      1.53863371000000     -2.93045841000000
  H   -1.00939733000000      1.60018343000000     -3.70693644000000
  H   0.43031731000000      2.32373476000000     -2.99942738000000
  H   -0.68652383000000      1.51130303000000     -2.02391989000000
  H   -0.11292518000000      0.41375045000000     -3.09496717000000
