9
Coordinates from ORCA-job 8_0_orca
  Pt  -0.78215553000000     -0.76372508000000      0.44886844000000
  Cl  -0.15145200000000     -0.33328644000000      2.65780529000000
  Cl  -2.62950249000000     -2.06912077000000      1.13488654000000
  Cl  -1.35395542000000     -1.18293502000000     -1.78410899000000
  C   0.85409727000000      0.97977786000000     -0.52808646000000
  H   1.41389487000000      1.64842245000000      0.12750140000000
  H   1.23665325000000     -0.53888257000000      0.21862576000000
  H   1.45036217000000      0.75051249000000     -1.41072322000000
  H   -0.03794212000000      1.50923347000000     -0.86475600000000
