9
Coordinates from ORCA-job 8_1_orca
  Pt  -0.70437909000000     -0.78073137000000      0.44280266000000
  Cl  -0.16501186000000     -0.34133264000000      2.65401454000000
  Cl  -2.58169030000000     -2.03638777000000      1.12042764000000
  Cl  -1.35779419000000     -1.17133443000000     -1.76730354000000
  C   0.91083726000000      0.89838401000000     -0.49255529000000
  H   1.40980314000000      1.63067990000000      0.13357353000000
  H   1.08321254000000     -0.39444678000000      0.16545964000000
  H   1.45479308000000      0.73457753000000     -1.40175380000000
  H   -0.05092888000000      1.46091400000000     -0.85422656000000
