9
Coordinates from ORCA-job 8_2_orca
  Pt  -0.75089627000000     -0.77056011000000      0.44643053000000
  Cl  -0.15690187000000     -0.33652030000000      2.65628174000000
  Cl  -2.61028621000000     -2.05596500000000      1.12907534000000
  Cl  -1.35549827000000     -1.17827260000000     -1.77735468000000
  C   0.87690174000000      0.94706472000000     -0.51380607000000
  H   1.41225036000000      1.64129151000000      0.12994186000000
  H   1.17498364000000     -0.48083214000000      0.19725768000000
  H   1.45214300000000      0.74410804000000     -1.40711831000000
  H   -0.04316165000000      1.48981331000000     -0.86052410000000
