9
Coordinates from ORCA-job 8_3_orca
  Pt  -0.67551652000000     -0.78746078000000      0.43769849000000
  Cl  -0.16703827000000     -0.34165633000000      2.65301277000000
  Cl  -2.54888695000000     -2.01417649000000      1.11144663000000
  Cl  -1.35339832000000     -1.16651278000000     -1.76095974000000
  C   0.89188690000000      0.86339138000000     -0.47337754000000
  H   1.41334256000000      1.61614946000000      0.14431078000000
  H   1.00045045000000     -0.30307833000000      0.12384963000000
  H   1.46358508000000      0.72069642000000     -1.40409916000000
  H   -0.02633939000000      1.41293257000000     -0.83107702000000
