9
Coordinates from ORCA-job 8_4_orca
  Pt  -0.71632633000000     -0.77831093000000      0.44242592000000
  Cl  -0.16155053000000     -0.33887574000000      2.65478256000000
  Cl  -2.58212787000000     -2.03680035000000      1.12099063000000
  Cl  -1.35453521000000     -1.17287942000000     -1.76983579000000
  C   0.88377409000000      0.90869125000000     -0.49526512000000
  H   1.41275125000000      1.62976110000000      0.13653160000000
  H   1.09494090000000     -0.39931239000000      0.16359198000000
  H   1.45739046000000      0.73337123000000     -1.40573370000000
  H   -0.03544679000000      1.45455500000000     -0.84701936000000
