9
Coordinates from ORCA-job 8_6_orca
  Pt  -0.65659521000000     -0.77910786000000      0.42478880000000
  Cl  -0.15169402000000     -0.32170045000000      2.64596337000000
  Cl  -2.51238122000000     -1.98157356000000      1.10260937000000
  Cl  -1.32327154000000     -1.17125059000000     -1.76730780000000
  C   0.86797692000000      0.85184394000000     -0.46617190000000
  H   1.40496663000000      1.56815750000000      0.16332101000000
  H   0.94751421000000     -0.26182773000000      0.08467024000000
  H   1.44152457000000      0.70388245000000     -1.38648873000000
  H   -0.02065223000000      1.39114558000000     -0.79992534000000
