9
Coordinates from ORCA-job 8_8_orca
  Pt  -0.66267842000000     -0.75821696000000      0.41464149000000
  Cl  -0.12279938000000     -0.28934570000000      2.63117799000000
  Cl  -2.46639626000000     -1.94456460000000      1.09354302000000
  Cl  -1.27358103000000     -1.17989855000000     -1.78465770000000
  C   0.83919624000000      0.85127279000000     -0.46339204000000
  H   1.39277230000000      1.50724401000000      0.19883818000000
  H   0.93440050000000     -0.27022875000000      0.05986872000000
  H   1.40717294000000      0.67582793000000     -1.36797304000000
  H   -0.05164140000000      1.40481295000000     -0.77962928000000
