9
Coordinates from ORCA-job 4_1_orca
  Pt  -0.83531418000000     -0.83751833000000      0.48883557000000
  Cl  -0.19863330000000     -0.41267485000000      2.66853273000000
  Cl  -2.60302488000000     -2.09158680000000      1.12881331000000
  Cl  -1.43071805000000     -1.14403272000000     -1.73909085000000
  C   1.04403649000000      0.82740801000000     -0.46726249000000
  H   1.42975154000000      1.70766082000000      0.08439666000000
  H   1.10455840000000     -0.17317672000000      0.12142960000000
  H   1.52151555000000      0.74189156000000     -1.40113978000000
  H   -0.03552897000000      1.38204122000000     -0.88387536000000
