9
Coordinates from ORCA-job 4_3_orca
  Pt  -0.82471271000000     -0.83104623000000      0.47991925000000
  Cl  -0.19167992000000     -0.40097917000000      2.66589810000000
  Cl  -2.59740463000000     -2.08073633000000      1.12781991000000
  Cl  -1.41725127000000     -1.14851099000000     -1.74290835000000
  C   0.97482695000000      0.84132001000000     -0.45640660000000
  H   1.43236117000000      1.68724727000000      0.09444472000000
  H   1.09041187000000     -0.15952748000000      0.09969219000000
  H   1.52591619000000      0.73412418000000     -1.41502840000000
  H   0.00386277000000      1.35841104000000     -0.85250859000000
