9
Coordinates from ORCA-job 4_6_orca
  Pt  -0.76749364000000     -0.81612052000000      0.45479004000000
  Cl  -0.17006531000000     -0.36223778000000      2.65347357000000
  Cl  -2.54465517000000     -2.02567683000000      1.11886092000000
  Cl  -1.36571096000000     -1.15751025000000     -1.75412156000000
  C   0.94531416000000      0.88238603000000     -0.49550627000000
  H   1.43305531000000      1.58923805000000      0.14637347000000
  H   0.95942233000000     -0.09453825000000      0.03698134000000
  H   1.49541273000000      0.70367213000000     -1.38597980000000
  H   0.00826304000000      1.28277587000000     -0.77123744000000
