27
autodE path point 0. E = none charge = -1 mult = 1 
Pd   -2.44659  -1.63153   0.80274
Cl   -4.22706  -2.91186   0.21375
Cl   -1.45858  -3.37397   1.98667
Cl   -3.29440   0.23608  -0.27989
N    -0.89211  -0.34937   1.43289
C    -1.13275   0.12091   2.64055
C    -0.64559   1.34875   3.08813
C     0.07284   2.11701   2.21172
C    -0.05529   0.31409   0.60825
C     0.38803   1.60936   0.94569
H     0.41138   3.10960   2.48430
H    -1.76317  -0.48641   3.27593
H    -0.88378   1.68983   4.08535
C     0.42302  -0.29522  -0.61300
C     1.11689   2.38290  -0.00745
C     1.42729   1.87043  -1.21530
C     1.12571   0.51081  -1.53579
H     1.39438   3.39699   0.25347
H     1.95329   2.46988  -1.94848
C     0.30207  -1.67043  -0.87804
C     1.58287  -0.04969  -2.73988
C     0.78299  -2.19968  -2.05187
C     1.40292  -1.38412  -3.00326
H     2.09782   0.58561  -3.45071
H     1.76277  -1.80931  -3.93149
H    -0.12550  -2.33908  -0.14383
H     0.68054  -3.26158  -2.23046
27
autodE path point 1. E = none charge = -1 mult = 1 
Pd   -2.40923  -1.63700   0.81683
Cl   -4.09537  -3.01133   0.13333
Cl   -1.33092  -3.64611   1.90476
Cl   -3.42993   0.19709  -0.14263
N    -0.89915  -0.30286   1.43649
C    -1.16143   0.18875   2.63135
C    -0.67291   1.41847   3.07400
C     0.07627   2.16474   2.20358
C    -0.05615   0.34929   0.60968
C     0.40221   1.63950   0.94723
H     0.42682   3.15192   2.48030
H    -1.81244  -0.40009   3.26286
H    -0.92596   1.77422   4.06206
C     0.40624  -0.27161  -0.61004
C     1.16475   2.39257   0.00404
C     1.48124   1.86604  -1.19667
C     1.14266   0.51662  -1.52207
H     1.46665   3.39956   0.26347
H     2.03773   2.45199  -1.91760
C     0.22207  -1.63034  -0.90440
C     1.59514  -0.04964  -2.72372
C     0.70064  -2.17268  -2.07543
C     1.37027  -1.37292  -3.00449
H     2.14209   0.56539  -3.42750
H     1.72752  -1.80366  -3.93059
H    -0.13620  -2.55226  -0.09129
H     0.56738  -3.22564  -2.28355
27
autodE path point 2. E = none charge = -1 mult = 1 
Pd   -2.36559  -1.64280   0.82210
Cl   -3.95082  -3.10106   0.05401
Cl   -1.20954  -3.90658   1.81469
Cl   -3.56747   0.13561   0.02824
N    -0.90233  -0.25873   1.43884
C    -1.18652   0.25362   2.62046
C    -0.69892   1.48595   3.05820
C     0.07922   2.21139   2.19498
C    -0.05974   0.38594   0.60548
C     0.41465   1.66988   0.94760
H     0.44149   3.19300   2.47662
H    -1.85799  -0.31638   3.24812
H    -0.96600   1.85550   4.03739
C     0.38764  -0.25007  -0.61027
C     1.21077   2.40212   0.01569
C     1.53373   1.86180  -1.17776
C     1.15900   0.52243  -1.50781
H     1.53610   3.40180   0.27480
H     2.11994   2.43410  -1.88653
C     0.13942  -1.59854  -0.91740
C     1.60880  -0.04878  -2.70741
C     0.61164  -2.13443  -2.09715
C     1.33963  -1.36027  -3.00280
H     2.18693   0.54600  -3.40424
H     1.69685  -1.79387  -3.92824
H    -0.14673  -2.76963  -0.05979
H     0.44582  -3.17803  -2.33784
27
autodE path point 3. E = none charge = -1 mult = 1 
Pd   -2.30905  -1.65280   0.81730
Cl   -3.80017  -3.17993  -0.02479
Cl   -1.08536  -4.14797   1.71330
Cl   -3.71337   0.04915   0.22841
N    -0.90683  -0.21209   1.43871
C    -1.20903   0.31623   2.60954
C    -0.72368   1.55203   3.04178
C     0.08190   2.25781   2.18659
C    -0.06482   0.42442   0.59857
C     0.42619   1.70107   0.94760
H     0.45580   3.23375   2.47331
H    -1.89690  -0.23906   3.23313
H    -1.00351   1.93446   4.01251
C     0.36898  -0.22829  -0.61120
C     1.25530   2.41190   0.02709
C     1.58451   1.85718  -1.15901
C     1.17499   0.52772  -1.49307
H     1.60275   3.40409   0.28668
H     2.19901   2.41555  -1.85556
C     0.06461  -1.56697  -0.92193
C     1.62325  -0.04898  -2.69087
C     0.52150  -2.09114  -2.11481
C     1.30998  -1.34870  -2.99596
H     2.23080   0.52572  -3.37994
H     1.66934  -1.78320  -3.92152
H    -0.16917  -2.99086  -0.06121
H     0.31299  -3.12109  -2.38466
27
autodE path point 4. E = none charge = -1 mult = 1 
Pd   -2.24832  -1.65691   0.80013
Cl   -3.65374  -3.24370  -0.10165
Cl   -0.95152  -4.37091   1.60724
Cl   -3.85420  -0.07203   0.45342
N    -0.91837  -0.16190   1.43457
C    -1.23148   0.37730   2.59832
C    -0.74742   1.61600   3.02486
C     0.08432   2.30333   2.17871
C    -0.07139   0.46517   0.59325
C     0.43748   1.73341   0.94789
H     0.46979   3.27353   2.47008
H    -1.92719  -0.17128   3.21961
H    -1.03783   2.01035   3.98780
C     0.35315  -0.19985  -0.61064
C     1.29760   2.42158   0.03805
C     1.63280   1.85295  -1.14052
C     1.19219   0.53435  -1.47986
H     1.66561   3.40625   0.29830
H     2.27339   2.39624  -1.82590
C    -0.00001  -1.52879  -0.92489
C     1.63752  -0.05141  -2.67433
C     0.43786  -2.04960  -2.12801
C     1.28198  -1.33896  -2.98460
H     2.27198   0.50320  -3.35543
H     1.64292  -1.77750  -3.90966
H    -0.21284  -3.21205  -0.09514
H     0.17568  -3.05878  -2.42156
27
autodE path point 5. E = none charge = -1 mult = 1 
Pd   -2.19207  -1.65152   0.76948
Cl   -3.52050  -3.29121  -0.17548
Cl   -0.79762  -4.56789   1.48570
Cl   -3.97332  -0.23392   0.69526
N    -0.93776  -0.10801   1.42641
C    -1.25678   0.43820   2.58595
C    -0.77014   1.67779   3.00758
C     0.08686   2.34763   2.17169
C    -0.07757   0.50732   0.59058
C     0.44932   1.76673   0.94886
H     0.48360   3.31212   2.46708
H    -1.95044  -0.11224   3.20811
H    -1.06896   2.08300   3.96349
C     0.34154  -0.16564  -0.60832
C     1.33765   2.43117   0.04838
C     1.67853   1.84969  -1.12266
C     1.21082   0.54258  -1.46845
H     1.72448   3.40845   0.30930
H     2.34272   2.37664  -1.79840
C    -0.05721  -1.48277  -0.92885
C     1.65109  -0.05568  -2.65795
C     0.36327  -2.00877  -2.13466
C     1.25677  -1.33155  -2.97144
H     2.31004   0.47795  -3.33245
H     1.61531  -1.77970  -3.89310
H    -0.29522  -3.43767  -0.13254
H     0.04557  -2.99271  -2.45356
27
autodE path point 6. E = none charge = -1 mult = 1 
Pd   -2.14313  -1.63159   0.72415
Cl   -3.40762  -3.32239  -0.24998
Cl   -0.61435  -4.74829   1.34175
Cl   -4.06199  -0.43586   0.95265
N    -0.96277  -0.05070   1.41501
C    -1.28804   0.50183   2.57051
C    -0.79254   1.73873   2.98960
C     0.08992   2.39154   2.16568
C    -0.08187   0.54920   0.58903
C     0.46205   1.80042   0.95052
H     0.49770   3.35041   2.46454
H    -1.97406  -0.05542   3.19521
H    -1.09823   2.15441   3.93886
C     0.33156  -0.13249  -0.60475
C     1.37664   2.44070   0.05828
C     1.72263   1.84603  -1.10549
C     1.22911   0.54932  -1.45719
H     1.78110   3.41068   0.31997
H     2.40877   2.35594  -1.77248
C    -0.11277  -1.43516  -0.92183
C     1.66205  -0.06505  -2.64082
C     0.29919  -1.97150  -2.12588
C     1.22775  -1.33062  -2.95161
H     2.34386   0.44700  -3.30977
H     1.58067  -1.78991  -3.86721
H    -0.39937  -3.63354  -0.20740
H    -0.07628  -2.93368  -2.46135
27
autodE path point 7. E = none charge = -1 mult = 1 
Pd   -2.09870  -1.59467   0.65787
Cl   -3.30521  -3.33629  -0.33481
Cl   -0.37729  -4.93087   1.15027
Cl   -4.10760  -0.69307   1.24431
N    -0.99362   0.01188   1.40083
C    -1.32893   0.57418   2.54932
C    -0.81668   1.80373   2.96966
C     0.09343   2.43845   2.16057
C    -0.08596   0.59489   0.59054
C     0.47654   1.83735   0.95360
H     0.51301   3.39129   2.46251
H    -2.01053   0.01262   3.17494
H    -1.12938   2.23070   3.91164
C     0.32154  -0.09537  -0.59876
C     1.41795   2.45018   0.06905
C     1.76889   1.84081  -1.08669
C     1.24831   0.55559  -1.44434
H     1.84094   3.41215   0.33140
H     2.47753   2.33032  -1.74547
C    -0.17316  -1.38000  -0.91089
C     1.67040  -0.07974  -2.62064
C     0.23323  -1.94129  -2.10835
C     1.19161  -1.33411  -2.92557
H     2.37524   0.40569  -3.28498
H     1.53454  -1.80801  -3.83218
H    -0.54025  -3.82162  -0.28669
H    -0.19587  -2.87480  -2.44714
27
autodE path point 8. E = none charge = -1 mult = 1 
Pd   -2.06925  -1.56200   0.60384
Cl   -3.23106  -3.32700  -0.41064
Cl   -0.15193  -5.05743   0.92258
Cl   -4.08603  -0.93284   1.49001
N    -1.02389   0.06207   1.38756
C    -1.36933   0.63772   2.52633
C    -0.83833   1.85817   2.95069
C     0.09583   2.47685   2.15557
C    -0.09205   0.63220   0.59486
C     0.48761   1.86605   0.95635
H     0.52559   3.42439   2.46008
H    -2.05779   0.08095   3.14863
H    -1.15709   2.29578   3.88581
C     0.31168  -0.06198  -0.58996
C     1.45198   2.45456   0.07908
C     1.80643   1.83125  -1.06901
C     1.26194   0.55743  -1.43074
H     1.89146   3.40916   0.34155
H     2.53412   2.30109  -1.72101
C    -0.22420  -1.33032  -0.89533
C     1.67199  -0.09839  -2.59964
C     0.17658  -1.92050  -2.08358
C     1.15291  -1.33885  -2.89779
H     2.39701   0.36159  -3.26117
H     1.48510  -1.83480  -3.80063
H    -0.66157  -3.95223  -0.31783
H    -0.28772  -2.83294  -2.42563
27
autodE path point 9. E = none charge = -1 mult = 1 
Pd   -2.04858  -1.51770   0.55548
Cl   -3.12379  -3.30399  -0.49813
Cl    0.11660  -5.17057   0.56857
Cl   -3.98172  -1.21691   1.75788
N    -1.06072   0.12145   1.37045
C    -1.41840   0.71351   2.49568
C    -0.86583   1.92232   2.92698
C     0.09639   2.52119   2.14991
C    -0.10087   0.67712   0.59915
C     0.49965   1.89965   0.96009
H     0.53836   3.46190   2.45786
H    -2.13680   0.18067   3.10409
H    -1.19508   2.37059   3.85338
C     0.29557  -0.02520  -0.57973
C     1.49186   2.45678   0.09246
C     1.84980   1.81505  -1.04577
C     1.27469   0.55561  -1.41260
H     1.95119   3.40166   0.35598
H     2.60049   2.25836  -1.69011
C    -0.29144  -1.27345  -0.87861
C     1.66755  -0.12772  -2.57223
C     0.10292  -1.90165  -2.04688
C     1.09768  -1.34776  -2.86240
H     2.41596   0.29988  -3.22820
H     1.41384  -1.86901  -3.75603
H    -0.78789  -4.10362  -0.31183
H    -0.40142  -2.79816  -2.36544
27
autodE path point 10. E = none charge = -1 mult = 1 
Pd   -2.00924  -1.49470   0.55569
Cl   -2.95753  -3.31821  -0.55333
Cl    0.27940  -5.24238   0.13125
Cl   -3.79078  -1.48802   2.00690
N    -1.10489   0.18913   1.35006
C    -1.47904   0.79830   2.45867
C    -0.90432   1.99520   2.89398
C     0.09142   2.56945   2.14129
C    -0.11623   0.72917   0.60381
C     0.51025   1.93616   0.96417
H     0.54897   3.50098   2.45350
H    -2.24724   0.30114   3.03507
H    -1.24872   2.45543   3.80877
C     0.27136   0.01704  -0.56750
C     1.53607   2.45221   0.11102
C     1.89847   1.78864  -1.01349
C     1.28534   0.54989  -1.38779
H     2.01948   3.38398   0.37733
H     2.67683   2.19552  -1.64829
C    -0.37172  -1.20571  -0.85696
C     1.65703  -0.16404  -2.53561
C     0.00879  -1.86493  -2.01185
C     1.02870  -1.35493  -2.82532
H     2.43434   0.21987  -3.18516
H     1.32414  -1.90748  -3.70949
H    -0.83630  -4.27539  -0.28116
H    -0.50456  -2.76631  -2.31554
27
autodE path point 11. E = none charge = -1 mult = 1 
Pd   -1.89828  -1.46969   0.50340
Cl   -2.61026  -3.39911  -0.56688
Cl    0.23037  -5.25633  -0.24088
Cl   -3.56162  -1.62193   2.20585
N    -1.13880   0.25672   1.32628
C    -1.54032   0.86835   2.42249
C    -0.94894   2.05710   2.86144
C     0.07886   2.61270   2.13717
C    -0.12638   0.78451   0.60298
C     0.51964   1.97506   0.97080
H     0.54865   3.53538   2.45791
H    -2.35846   0.39314   2.95085
H    -1.31385   2.52317   3.76602
C     0.24408   0.05837  -0.55899
C     1.57631   2.44817   0.13078
C     1.94017   1.76141  -0.98013
C     1.29170   0.54331  -1.36357
H     2.08272   3.36723   0.40073
H     2.74558   2.13549  -1.60203
C    -0.47856  -1.12519  -0.83559
C     1.64209  -0.19906  -2.49917
C    -0.09110  -1.82152  -1.96762
C     0.95509  -1.36048  -2.77996
H     2.44614   0.14047  -3.14146
H     1.23140  -1.93967  -3.65341
H    -0.86687  -4.53036  -0.30969
H    -0.59936  -2.73724  -2.23732
