27
Coordinates from ORCA-job 2_12_orca
  Pd  -2.14213543000000     -1.76559514000000      0.69288316000000
  Cl  -3.54905446000000     -3.27371175000000     -0.17084162000000
  Cl  -0.69569410000000     -4.30148041000000      1.27654322000000
  Cl  -3.93303824000000     -0.24861405000000      0.74272341000000
  N   -0.96734531000000     -0.13670604000000      1.43572809000000
  C   -1.28601347000000      0.43515484000000      2.58493423000000
  C   -0.76399285000000      1.66610161000000      3.00471854000000
  C   0.08187781000000      2.33797200000000      2.16474388000000
  C   -0.07005522000000      0.45078411000000      0.61906076000000
  C   0.44412707000000      1.74417277000000      0.94556282000000
  H   0.48671159000000      3.30911705000000      2.43720562000000
  H   -1.96712588000000     -0.11452534000000      3.22167020000000
  H   -1.07072525000000      2.08192646000000      3.95444592000000
  C   0.35477313000000     -0.29927191000000     -0.55635736000000
  C   1.33103703000000      2.41987425000000      0.04866051000000
  C   1.65890438000000      1.82445905000000     -1.11408860000000
  C   1.17541891000000      0.49247554000000     -1.44073879000000
  H   1.72471567000000      3.40234043000000      0.32046254000000
  H   2.34033276000000      2.34402144000000     -1.80291690000000
  C   0.02048197000000     -1.70458677000000     -0.82232155000000
  C   1.64578904000000     -0.06037755000000     -2.65225683000000
  C   0.36896730000000     -2.06787542000000     -2.11221424000000
  C   1.19598640000000     -1.31453761000000     -2.98913583000000
  H   2.33215656000000      0.49106062000000     -3.30662171000000
  H   1.58253406000000     -1.78674606000000     -3.88872521000000
  H   -0.32897753000000     -2.89763315000000     -0.11342042000000
  H   0.02510597000000     -3.02837823000000     -2.47371791000000
