27
Coordinates from ORCA-job 2_13_orca
  Pd  -2.13589393000000     -1.76186160000000      0.68521248000000
  Cl  -3.54099649000000     -3.27759990000000     -0.17746647000000
  Cl  -0.67762101000000     -4.29858480000000      1.25085477000000
  Cl  -3.93847019000000     -0.26179625000000      0.76402806000000
  N   -0.96809570000000     -0.13524767000000      1.43543001000000
  C   -1.28938065000000      0.43830122000000      2.58424037000000
  C   -0.76580567000000      1.66961972000000      3.00266840000000
  C   0.08113466000000      2.33925369000000      2.16391694000000
  C   -0.06965865000000      0.45035847000000      0.61978374000000
  C   0.44482789000000      1.74423484000000      0.94517133000000
  H   0.48747230000000      3.31150714000000      2.43545425000000
  H   -1.97130715000000     -0.10968307000000      3.22088108000000
  H   -1.07305680000000      2.08659466000000      3.95297012000000
  C   0.35696960000000     -0.30079719000000     -0.55318099000000
  C   1.33313767000000      2.41855159000000      0.04871647000000
  C   1.66020737000000      1.82180774000000     -1.11163104000000
  C   1.17663307000000      0.48953504000000     -1.43763198000000
  H   1.72851286000000      3.40187263000000      0.32159691000000
  H   2.34363991000000      2.33952911000000     -1.80097773000000
  C   0.01769128000000     -1.70262189000000     -0.82085526000000
  C   1.64461237000000     -0.06194480000000     -2.65042696000000
  C   0.36433896000000     -2.06853504000000     -2.11072020000000
  C   1.19193253000000     -1.31610951000000     -2.98724555000000
  H   2.33432484000000      0.48836379000000     -3.30241852000000
  H   1.57687819000000     -1.78717012000000     -3.88732000000000
  H   -0.33447939000000     -2.89087113000000     -0.10781984000000
  H   0.01668024000000     -3.02720416000000     -2.47659328000000
