27
Coordinates from ORCA-job 2_1_orca
  Pd  -2.23480213000000     -1.75642872000000      0.75994340000000
  Cl  -3.63287873000000     -3.22470110000000     -0.09712653000000
  Cl  -0.88777998000000     -4.30336809000000      1.53263599000000
  Cl  -3.85817683000000     -0.09484141000000      0.49669486000000
  N   -0.96095088000000     -0.15969017000000      1.44483864000000
  C   -1.24638551000000      0.39213129000000      2.60533552000000
  C   -0.74378540000000      1.61394206000000      3.01125249000000
  C   0.07628140000000      2.29783530000000      2.17916888000000
  C   -0.06508004000000      0.44355738000000      0.61898565000000
  C   0.44758008000000      1.75330353000000      0.94118946000000
  H   0.47605633000000      3.27603488000000      2.45274515000000
  H   -1.91759301000000     -0.16435330000000      3.21646370000000
  H   -1.04296263000000      2.02196814000000      3.97518368000000
  C   0.34023558000000     -0.20240056000000     -0.58438125000000
  C   1.30200959000000      2.41695721000000      0.03720166000000
  C   1.63771010000000      1.85462233000000     -1.12648655000000
  C   1.20234944000000      0.54109428000000     -1.50630856000000
  H   1.67206654000000      3.39681418000000      0.30468236000000
  H   2.28184961000000      2.37822926000000     -1.81914790000000
  C   0.01453225000000     -1.73358920000000     -0.86826020000000
  C   1.64731686000000     -0.05975743000000     -2.67308133000000
  C   0.43413222000000     -2.04703887000000     -2.14790906000000
  C   1.25421056000000     -1.31162463000000     -2.99654958000000
  H   2.28268604000000      0.50898344000000     -3.33501829000000
  H   1.63463827000000     -1.77802277000000     -3.90164461000000
  H   -0.24890014000000     -3.02311226000000     -0.09904296000000
  H   0.13290950000000     -3.03666326000000     -2.42280292000000
