27
Coordinates from ORCA-job 2_2_orca
  Pd  -2.19954078000000     -1.78721801000000      0.73732011000000
  Cl  -3.60101564000000     -3.23469343000000     -0.11930355000000
  Cl  -0.82149279000000     -4.31035194000000      1.45274388000000
  Cl  -3.88997451000000     -0.14530358000000      0.58077435000000
  N   -0.97295684000000     -0.14961368000000      1.44517438000000
  C   -1.26115759000000      0.40718510000000      2.59467694000000
  C   -0.75472987000000      1.63407965000000      3.02144473000000
  C   0.08683251000000      2.32216397000000      2.16816619000000
  C   -0.06427914000000      0.46010348000000      0.62971683000000
  C   0.44286690000000      1.74980602000000      0.94674876000000
  H   0.47883717000000      3.28485405000000      2.44690702000000
  H   -1.93153590000000     -0.14719022000000      3.21855549000000
  H   -1.05170484000000      2.04232507000000      3.96198698000000
  C   0.34175881000000     -0.24680774000000     -0.58757785000000
  C   1.31305897000000      2.42859675000000      0.05000996000000
  C   1.65357317000000      1.84273203000000     -1.13657554000000
  C   1.18592058000000      0.53730152000000     -1.47327625000000
  H   1.69081512000000      3.39723478000000      0.30963320000000
  H   2.30415959000000      2.36837189000000     -1.81203084000000
  C   0.02190303000000     -1.75846411000000     -0.83837643000000
  C   1.65881839000000     -0.05780436000000     -2.67665539000000
  C   0.40465038000000     -2.06147765000000     -2.13465429000000
  C   1.23627389000000     -1.30489410000000     -3.00752884000000
  H   2.30011702000000      0.50252375000000     -3.32479333000000
  H   1.61864459000000     -1.78082705000000     -3.89297204000000
  H   -0.28702508000000     -2.96804448000000     -0.12285763000000
  H   0.09335046000000     -3.02473290000000     -2.43744761000000
