27
Coordinates from ORCA-job 2_3_orca
  Pd  -2.19188446000000     -1.77338228000000      0.73501282000000
  Cl  -3.59892696000000     -3.24430589000000     -0.12727809000000
  Cl  -0.80885195000000     -4.30714506000000      1.43183103000000
  Cl  -3.89229071000000     -0.15928139000000      0.59984485000000
  N   -0.96510465000000     -0.14975261000000      1.43977638000000
  C   -1.26407544000000      0.40917351000000      2.59274821000000
  C   -0.75299094000000      1.64033861000000      3.01684718000000
  C   0.08453073000000      2.32331078000000      2.17011186000000
  C   -0.06789284000000      0.45704648000000      0.62314100000000
  C   0.44134938000000      1.74438575000000      0.94696012000000
  H   0.47974576000000      3.28856814000000      2.44655145000000
  H   -1.93856647000000     -0.14473158000000      3.22140017000000
  H   -1.05417549000000      2.04720469000000      3.96333894000000
  C   0.34554556000000     -0.26550190000000     -0.58313119000000
  C   1.31513136000000      2.42369923000000      0.04582330000000
  C   1.65073014000000      1.84067483000000     -1.12983741000000
  C   1.17827883000000      0.52298657000000     -1.46254402000000
  H   1.69566168000000      3.40081308000000      0.31159906000000
  H   2.31011955000000      2.36752377000000     -1.81308545000000
  C   0.02584840000000     -1.72472093000000     -0.84051543000000
  C   1.65477892000000     -0.05491965000000     -2.67082968000000
  C   0.39926167000000     -2.06360816000000     -2.12456407000000
  C   1.23029814000000     -1.30988743000000     -3.00316623000000
  H   2.30651229000000      0.50255256000000     -3.32563582000000
  H   1.61447812000000     -1.78158898000000     -3.89462419000000
  H   -0.28757311000000     -2.95784730000000     -0.12187518000000
  H   0.08643515000000     -3.03187484000000     -2.44664195000000
