27
Coordinates from ORCA-job 2_4_orca
  Pd  -2.13429106000000     -1.77986441000000      0.69576725000000
  Cl  -3.54895515000000     -3.27528252000000     -0.17189183000000
  Cl  -0.69465939000000     -4.30890206000000      1.27983547000000
  Cl  -3.93812655000000     -0.25282848000000      0.74923909000000
  N   -0.96570980000000     -0.13402948000000      1.43157057000000
  C   -1.28857233000000      0.43889073000000      2.58467370000000
  C   -0.75882611000000      1.67226700000000      3.00106848000000
  C   0.07949023000000      2.34075794000000      2.16969631000000
  C   -0.07386811000000      0.44996542000000      0.61560693000000
  C   0.44365275000000      1.74514750000000      0.94691516000000
  H   0.48819540000000      3.31255287000000      2.43784134000000
  H   -1.96840286000000     -0.11486535000000      3.22496706000000
  H   -1.07255545000000      2.08570298000000      3.95538300000000
  C   0.35126583000000     -0.32052233000000     -0.55526722000000
  C   1.33390564000000      2.41794827000000      0.04355831000000
  C   1.65832582000000      1.82897168000000     -1.10784886000000
  C   1.16530101000000      0.48467407000000     -1.43589959000000
  H   1.72877789000000      3.40715980000000      0.32235055000000
  H   2.34806303000000      2.34817816000000     -1.80568507000000
  C   0.03053924000000     -1.70317978000000     -0.81431129000000
  C   1.64796482000000     -0.05582821000000     -2.64946830000000
  C   0.36603912000000     -2.06782376000000     -2.10626770000000
  C   1.18955457000000     -1.31125639000000     -2.99035653000000
  H   2.34009798000000      0.49449207000000     -3.31173714000000
  H   1.58517410000000     -1.78864022000000     -3.89038733000000
  H   -0.33587710000000     -2.88307260000000     -0.13358958000000
  H   0.01904095000000     -3.03141465000000     -2.47965821000000
