27
Coordinates from ORCA-job 2_7_orca
  Pd  -2.15027429000000     -1.77046364000000      0.70288566000000
  Cl  -3.55956200000000     -3.26864165000000     -0.16220288000000
  Cl  -0.71926126000000     -4.30525628000000      1.31004075000000
  Cl  -3.92595503000000     -0.23142458000000      0.71494232000000
  N   -0.96636681000000     -0.13860775000000      1.43611680000000
  C   -1.28162269000000      0.43105199000000      2.58583901000000
  C   -0.76162895000000      1.66151401000000      3.00739191000000
  C   0.08284688000000      2.33630070000000      2.16582220000000
  C   -0.07057235000000      0.45133913000000      0.61811801000000
  C   0.44321322000000      1.74409183000000      0.94607333000000
  H   0.48571963000000      3.30600039000000      2.43948940000000
  H   -1.96167352000000     -0.12083963000000      3.22269922000000
  H   -1.06768492000000      2.07583917000000      3.95637036000000
  C   0.35190894000000     -0.29728297000000     -0.56049931000000
  C   1.32829780000000      2.42159900000000      0.04858755000000
  C   1.65720528000000      1.82791633000000     -1.11729325000000
  C   1.17383565000000      0.49630992000000     -1.44479006000000
  H   1.71976415000000      3.40295044000000      0.31898333000000
  H   2.33602025000000      2.34987941000000     -1.80544556000000
  C   0.02412102000000     -1.70714896000000     -0.82423357000000
  C   1.64732342000000     -0.05833386000000     -2.65464296000000
  C   0.37500263000000     -2.06701528000000     -2.11416247000000
  C   1.20127261000000     -1.31248787000000     -2.99160074000000
  H   2.32932915000000      0.49457727000000     -3.31210263000000
  H   1.58990927000000     -1.78619308000000     -3.89055760000000
  H   -0.32180314000000     -2.90645078000000     -0.12072352000000
  H   0.03609305000000     -3.02990920000000     -2.46996844000000
