27
Coordinates from ORCA-job 2_8_orca
  Pd  -2.05459613000000     -1.71323091000000      0.58529901000000
  Cl  -3.43603835000000     -3.32824439000000     -0.26375752000000
  Cl  -0.44221231000000     -4.26086830000000      0.91625314000000
  Cl  -4.00922333000000     -0.43349921000000      1.04152906000000
  N   -0.97786978000000     -0.11625187000000      1.43154730000000
  C   -1.33323944000000      0.47928393000000      2.57520261000000
  C   -0.78941831000000      1.71544445000000      2.97596453000000
  C   0.07145476000000      2.35594809000000      2.15314580000000
  C   -0.06449311000000      0.44481447000000      0.62920075000000
  C   0.45395627000000      1.74504336000000      0.94007195000000
  H   0.49738078000000      3.34263894000000      2.41264196000000
  H   -2.02576987000000     -0.04661066000000      3.21060243000000
  H   -1.10342614000000      2.14739969000000      3.93374722000000
  C   0.38557947000000     -0.32066446000000     -0.51180766000000
  C   1.36049937000000      2.40132340000000      0.04944528000000
  C   1.67717932000000      1.78727347000000     -1.07962036000000
  C   1.19244798000000      0.45123394000000     -1.39716453000000
  H   1.77797277000000      3.39577938000000      0.33637250000000
  H   2.38671685000000      2.28101479000000     -1.77571934000000
  C   -0.01865859000000     -1.67702860000000     -0.80175629000000
  C   1.62928575000000     -0.08235887000000     -2.62659222000000
  C   0.30405303000000     -2.07712686000000     -2.09125965000000
  C   1.13912939000000     -1.33658410000000     -2.96262400000000
  H   2.36256743000000      0.45323657000000     -3.24767041000000
  H   1.50320842000000     -1.79269369000000     -3.86901659000000
  H   -0.40614324000000     -2.80279320000000     -0.03487026000000
  H   -0.09306801000000     -3.01191152000000     -2.51404612000000
