30
Coordinates from ORCA-job 3_12_orca
  Lu  0.13846583000000      0.11925118000000     -0.05281964000000
  C   0.35780203000000      0.85106244000000      2.47402382000000
  C   1.35494869000000     -0.14672345000000      2.16955840000000
  C   2.29892171000000      0.42302475000000      1.26487434000000
  C   1.86972601000000      1.70932969000000      0.90994147000000
  C   0.67790374000000      2.00873658000000      1.63756424000000
  H   2.43479384000000      2.39849450000000      0.34071800000000
  H   0.17331312000000      2.90542238000000      1.65602967000000
  H   -0.39163907000000      0.78903940000000      3.13858736000000
  H   1.47350203000000     -1.04578627000000      2.68502862000000
  H   3.16665304000000     -0.06001908000000      0.94013806000000
  C   0.96917898000000     -0.08552438000000     -2.44362657000000
  C   -0.31553570000000     -0.64243652000000     -2.50688103000000
  C   1.05120762000000     -1.96445884000000     -1.18698395000000
  C   1.76217019000000     -0.87945277000000     -1.71407152000000
  H   1.30020954000000      0.77227008000000     -3.06134818000000
  C   -0.31601719000000     -1.85485233000000     -1.71275862000000
  H   -1.15527946000000     -0.28273767000000     -3.03529491000000
  H   2.86310332000000     -0.76488200000000     -1.55113797000000
  H   1.40764978000000     -2.78349637000000     -0.66657595000000
  H   -1.06066797000000     -2.52896898000000     -1.59550235000000
  C   -2.30631631000000     -1.11720354000000      1.03923359000000
  H   -2.17591155000000     -1.12252361000000      2.13626897000000
  H   -1.87847263000000     -2.04846001000000      0.73921778000000
  H   -3.42179949000000     -1.32497140000000      1.01182658000000
  C   -1.88882281000000      1.40944377000000     -0.55950613000000
  H   -2.19887351000000     -0.09267070000000      0.31697641000000
  H   -1.13264611000000      2.07978516000000     -1.00757276000000
  H   -2.45058087000000      2.08149285000000      0.10411000000000
  H   -2.57613928000000      1.23904569000000     -1.40073328000000
