30
Coordinates from ORCA-job 3_13_orca
  Lu  0.04863164000000      0.10369860000000     -0.02520846000000
  C   0.40948598000000      0.82949191000000      2.48587110000000
  C   1.39458327000000     -0.14929045000000      2.19026298000000
  C   2.30157711000000      0.41808407000000      1.26034763000000
  C   1.84505518000000      1.70703577000000      0.92412346000000
  C   0.67358765000000      1.97008898000000      1.68667474000000
  H   2.38572261000000      2.41500891000000      0.33431563000000
  H   0.12559993000000      2.88176491000000      1.69770366000000
  H   -0.37424310000000      0.73147812000000      3.19614514000000
  H   1.53628767000000     -1.07360380000000      2.70066851000000
  H   3.21001290000000     -0.03137362000000      0.93684396000000
  C   0.93705492000000     -0.07981339000000     -2.45035075000000
  C   -0.33518250000000     -0.69589257000000     -2.49235232000000
  C   1.05090063000000     -1.98557568000000     -1.20016800000000
  C   1.78801728000000     -0.88544453000000     -1.69209879000000
  H   1.24385128000000      0.77657430000000     -3.03283253000000
  C   -0.27159968000000     -1.87694254000000     -1.71672089000000
  H   -1.19599825000000     -0.32322794000000     -3.00749498000000
  H   2.85357208000000     -0.76176529000000     -1.58496314000000
  H   1.45645249000000     -2.82412392000000     -0.68426344000000
  H   -1.05185130000000     -2.58806260000000     -1.57354473000000
  C   -2.32396408000000     -1.19725787000000      1.07920485000000
  H   -2.22232812000000     -1.17777905000000      2.17939034000000
  H   -1.89433986000000     -2.17116722000000      0.84409428000000
  H   -3.41613457000000     -1.32916988000000      0.96606977000000
  C   -1.89193202000000      1.55904135000000     -0.64884677000000
  H   -2.11123646000000     -0.06957602000000      0.32240930000000
  H   -1.13854438000000      2.22790640000000     -1.09399210000000
  H   -2.47209094000000      2.26637118000000     -0.04400337000000
  H   -2.54415316000000      1.36419256000000     -1.50775162000000
