30
Coordinates from ORCA-job 3_1_orca
  Lu  0.18766910000000      0.10874329000000     -0.05497806000000
  C   0.44856637000000      0.82390482000000      2.53339652000000
  C   1.46099811000000     -0.14430080000000      2.27960459000000
  C   2.40001378000000      0.44080557000000      1.32480409000000
  C   1.88562079000000      1.76008068000000      0.99854214000000
  C   0.67728286000000      1.97926539000000      1.76120719000000
  H   2.30509146000000      2.43706924000000      0.30141675000000
  H   0.10924941000000      2.84826830000000      1.74984712000000
  H   -0.29168333000000      0.73316667000000      3.30704488000000
  H   1.52802421000000     -1.10546572000000      2.68909420000000
  H   3.25728455000000     -0.00188618000000      0.96599158000000
  C   0.93720542000000     -0.11470369000000     -2.52273168000000
  C   -0.35751444000000     -0.74114098000000     -2.49356105000000
  C   1.08370957000000     -2.07724437000000     -1.26955671000000
  C   1.84869059000000     -0.94584689000000     -1.78485387000000
  H   1.15949580000000      0.81952784000000     -2.97665104000000
  C   -0.24851216000000     -1.91354981000000     -1.74240312000000
  H   -1.19845333000000     -0.42217812000000     -3.03655754000000
  H   2.87098466000000     -0.77665044000000     -1.62191045000000
  H   1.45526806000000     -2.85775974000000     -0.69117473000000
  H   -1.03981921000000     -2.63953929000000     -1.60134544000000
  C   -2.38906387000000     -1.55686501000000      1.27115023000000
  H   -2.30415258000000     -1.39407693000000      2.35704858000000
  H   -2.21522115000000     -2.72903960000000      1.14125985000000
  H   -3.28787807000000     -1.39372342000000      0.90074242000000
  C   -1.94659104000000      1.94467157000000     -0.87150785000000
  H   -2.06059332000000      0.09996738000000      0.39802706000000
  H   -1.16976275000000      2.63770396000000     -1.36595005000000
  H   -2.56125010000000      2.61725937000000     -0.26372577000000
  H   -2.54790337000000      1.56413738000000     -1.68013742000000
