30
Coordinates from ORCA-job 3_2_orca
  Lu  0.06465924000000      0.11136427000000     -0.04150580000000
  C   0.43553083000000      0.81856898000000      2.51311610000000
  C   1.47934186000000     -0.11127818000000      2.27584177000000
  C   2.34140890000000      0.43778617000000      1.30789015000000
  C   1.87151219000000      1.73967817000000      1.00312573000000
  C   0.70821015000000      1.97514296000000      1.76672960000000
  H   2.33320844000000      2.45575703000000      0.29611900000000
  H   0.08826693000000      2.88044735000000      1.74251754000000
  H   -0.31187855000000      0.72878378000000      3.29517765000000
  H   1.53519946000000     -1.13083535000000      2.70356862000000
  H   3.30124988000000     -0.02125426000000      0.95277600000000
  C   0.93602932000000     -0.13147560000000     -2.51844062000000
  C   -0.33904335000000     -0.73416285000000     -2.49878140000000
  C   1.08066091000000     -2.04825485000000     -1.28582664000000
  C   1.81105168000000     -0.93112989000000     -1.74647007000000
  H   1.17705871000000      0.82853936000000     -3.00040336000000
  C   -0.24601797000000     -1.91531749000000     -1.73943054000000
  H   -1.22058605000000     -0.39842198000000     -3.03891360000000
  H   2.90329387000000     -0.77602904000000     -1.62553578000000
  H   1.47314314000000     -2.88302647000000     -0.67498673000000
  H   -1.04075028000000     -2.63204766000000     -1.59379962000000
  C   -2.36197458000000     -1.51110318000000      1.26826257000000
  H   -2.30017571000000     -1.38198624000000      2.33969191000000
  H   -2.16165636000000     -2.67120078000000      1.11231397000000
  H   -3.37428023000000     -1.37308869000000      0.90008758000000
  C   -1.92412018000000      1.89755373000000     -0.84224526000000
  H   -2.00105417000000      0.03252754000000      0.39950308000000
  H   -1.16988039000000      2.60886800000000     -1.34599793000000
  H   -2.54620284000000      2.59017433000000     -0.24608035000000
  H   -2.54827166000000      1.54755422000000     -1.67379927000000
