30
Coordinates from ORCA-job 3_3_orca
  Lu  0.14327766000000      0.10968915000000     -0.05011623000000
  C   0.44386214000000      0.82197924000000      2.52607778000000
  C   1.46761795000000     -0.13238369000000      2.27824667000000
  C   2.37886462000000      0.43971594000000      1.31870024000000
  C   1.88052932000000      1.75271788000000      1.00019625000000
  C   0.68844381000000      1.97777770000000      1.76320010000000
  H   2.31523823000000      2.44381323000000      0.29950491000000
  H   0.10167731000000      2.85988098000000      1.74720204000000
  H   -0.29897132000000      0.73158498000000      3.30276227000000
  H   1.53061360000000     -1.11462104000000      2.69431769000000
  H   3.27315063000000     -0.00887568000000      0.96122238000000
  C   0.93678099000000     -0.12075629000000     -2.52118313000000
  C   -0.35084865000000     -0.73862273000000     -2.49544495000000
  C   1.08260938000000     -2.06678272000000     -1.27542816000000
  C   1.83510757000000     -0.94053586000000     -1.77100203000000
  H   1.16583385000000      0.82277989000000     -2.98522271000000
  C   -0.24761206000000     -1.91418772000000     -1.74133039000000
  H   -1.20644052000000     -0.41360508000000     -3.03740779000000
  H   2.88264431000000     -0.77642619000000     -1.62321875000000
  H   1.46171877000000     -2.86687792000000     -0.68533285000000
  H   -1.04015521000000     -2.63683573000000     -1.59862233000000
  C   -2.37928797000000     -1.54035061000000      1.27010814000000
  H   -2.30271742000000     -1.38971368000000      2.35078496000000
  H   -2.19589084000000     -2.70816689000000      1.13081395000000
  H   -3.31905863000000     -1.38627682000000      0.90050610000000
  C   -1.93848182000000      1.92766782000000     -0.86094765000000
  H   -2.03910700000000      0.07562989000000      0.39855972000000
  H   -1.16980520000000      2.62729772000000     -1.35874979000000
  H   -2.55581989000000      2.60748500000000     -0.25735794000000
  H   -2.54803628000000      1.55815289000000     -1.67785013000000
