30
Coordinates from ORCA-job 3_8_orca
  Lu  0.02445179000000      0.09679204000000     -0.01423553000000
  C   0.42400875000000      0.81855175000000      2.50315906000000
  C   1.39983768000000     -0.15865620000000      2.18676808000000
  C   2.30368427000000      0.41700068000000      1.25601788000000
  C   1.82825635000000      1.70088684000000      0.92361020000000
  C   0.66552982000000      1.95569819000000      1.69827275000000
  H   2.36707904000000      2.41939809000000      0.33459588000000
  H   0.10892774000000      2.86395491000000      1.71389453000000
  H   -0.36323089000000      0.70435134000000      3.21037807000000
  H   1.56876258000000     -1.08012163000000      2.70843202000000
  H   3.21915444000000     -0.01730205000000      0.93390225000000
  C   0.92125505000000     -0.08018245000000     -2.43646701000000
  C   -0.34178571000000     -0.71597073000000     -2.48785801000000
  C   1.05391075000000     -1.98970464000000     -1.19101401000000
  C   1.78129546000000     -0.88351161000000     -1.68506173000000
  H   1.22366741000000      0.77797247000000     -3.02449162000000
  C   -0.26603934000000     -1.89174832000000     -1.71600456000000
  H   -1.21067615000000     -0.33722708000000     -2.98847820000000
  H   2.85182485000000     -0.75789888000000     -1.59634321000000
  H   1.47705470000000     -2.83494638000000     -0.69719871000000
  H   -1.04128485000000     -2.60964456000000     -1.56298382000000
  C   -2.33593763000000     -1.20427487000000      1.07984877000000
  H   -2.23941590000000     -1.18866740000000      2.18446161000000
  H   -1.87596542000000     -2.18627075000000      0.87154388000000
  H   -3.40312528000000     -1.32731319000000      0.95434732000000
  C   -1.89894173000000      1.59418088000000     -0.66825225000000
  H   -2.08340200000000     -0.05424136000000      0.30376289000000
  H   -1.14064561000000      2.25924359000000     -1.10781415000000
  H   -2.47793585000000      2.32807228000000     -0.09927316000000
  H   -2.52735838000000      1.40974614000000     -1.54247476000000
