27
Coordinates from ORCA-job 2_0_orca
  Pd  -2.36558733000000     -1.64280019000000      0.82210107000000
  Cl  -3.95082443000000     -3.10105842000000      0.05400629000000
  Cl  -1.20954338000000     -3.90658180000000      1.81468959000000
  Cl  -3.56747181000000      0.13561075000000      0.02823874000000
  N   -0.90232702000000     -0.25873058000000      1.43883626000000
  C   -1.18651535000000      0.25362225000000      2.62045718000000
  C   -0.69892073000000      1.48595116000000      3.05819540000000
  C   0.07921568000000      2.21139046000000      2.19497926000000
  C   -0.05974151000000      0.38594330000000      0.60548296000000
  C   0.41465012000000      1.66987890000000      0.94759967000000
  H   0.44148893000000      3.19300117000000      2.47661958000000
  H   -1.85798927000000     -0.31637546000000      3.24812480000000
  H   -0.96600445000000      1.85550268000000      4.03738674000000
  C   0.38764456000000     -0.25006569000000     -0.61027016000000
  C   1.21077483000000      2.40212201000000      0.01569274000000
  C   1.53373416000000      1.86179656000000     -1.17775623000000
  C   1.15899888000000      0.52242825000000     -1.50781066000000
  H   1.53610462000000      3.40179579000000      0.27480189000000
  H   2.11994034000000      2.43409940000000     -1.88652727000000
  C   0.13941551000000     -1.59853728000000     -0.91740148000000
  C   1.60880011000000     -0.04878046000000     -2.70740638000000
  C   0.61164008000000     -2.13442551000000     -2.09714581000000
  C   1.33962918000000     -1.36026886000000     -3.00280181000000
  H   2.18693238000000      0.54600184000000     -3.40424164000000
  H   1.69685133000000     -1.79386501000000     -3.92823584000000
  H   -0.14672678000000     -2.76962707000000     -0.05978767000000
  H   0.44582330000000     -3.17802821000000     -2.33783527000000
