27
Coordinates from ORCA-job 2_1_orca
  Pd  -2.33260089000000     -1.74033952000000      0.82320221000000
  Cl  -3.89087241000000     -3.11373384000000      0.03123639000000
  Cl  -1.17065173000000     -3.91871396000000      1.74624274000000
  Cl  -3.61387285000000      0.11022895000000      0.10528216000000
  N   -0.92086939000000     -0.24365815000000      1.44662692000000
  C   -1.19454973000000      0.28339541000000      2.61915270000000
  C   -0.70600764000000      1.50564302000000      3.04612701000000
  C   0.07620899000000      2.22381381000000      2.19682028000000
  C   -0.05894493000000      0.39035786000000      0.61745528000000
  C   0.42360958000000      1.68917583000000      0.94497656000000
  H   0.44839317000000      3.20872756000000      2.47066731000000
  H   -1.87184218000000     -0.28801134000000      3.24260458000000
  H   -0.98109977000000      1.88535231000000      4.02812793000000
  C   0.36561334000000     -0.24415611000000     -0.59341092000000
  C   1.22669869000000      2.40151038000000      0.01608291000000
  C   1.55062294000000      1.86273110000000     -1.16206181000000
  C   1.16638534000000      0.52647849000000     -1.51522092000000
  H   1.56069019000000      3.40316546000000      0.28110280000000
  H   2.14958588000000      2.42353331000000     -1.87767862000000
  C   0.11782522000000     -1.81899111000000     -0.81193299000000
  C   1.61874719000000     -0.05079265000000     -2.70914502000000
  C   0.57997759000000     -2.10792227000000     -2.12060448000000
  C   1.31726569000000     -1.34818362000000     -3.00649799000000
  H   2.20524742000000      0.54306497000000     -3.39073552000000
  H   1.68732310000000     -1.79032030000000     -3.92582828000000
  H   -0.14521022000000     -2.63636237000000     -0.15821889000000
  H   0.39413993000000     -3.15395190000000     -2.34462942000000
