27
Coordinates from ORCA-job 2_3_orca
  Pd  -2.31719932000000     -1.76455282000000      0.82865451000000
  Cl  -3.87853967000000     -3.12910859000000      0.01966824000000
  Cl  -1.16054022000000     -3.90211789000000      1.71500640000000
  Cl  -3.62122876000000      0.08924756000000      0.14053065000000
  N   -0.92170097000000     -0.24474436000000      1.44939196000000
  C   -1.20569064000000      0.28478690000000      2.61774759000000
  C   -0.70909268000000      1.51929133000000      3.05049327000000
  C   0.08049284000000      2.23424764000000      2.19211034000000
  C   -0.06115601000000      0.39059807000000      0.61747137000000
  C   0.42118638000000      1.68734090000000      0.94699803000000
  H   0.44994629000000      3.21316516000000      2.46804875000000
  H   -1.87764409000000     -0.27661406000000      3.24225718000000
  H   -0.98597977000000      1.89527989000000      4.02178127000000
  C   0.36551948000000     -0.30558672000000     -0.58626648000000
  C   1.23126443000000      2.40742037000000      0.02484887000000
  C   1.55544675000000      1.85185935000000     -1.16786980000000
  C   1.14896589000000      0.50754047000000     -1.49262736000000
  H   1.56956571000000      3.40206457000000      0.28328241000000
  H   2.15923745000000      2.41739069000000     -1.87323262000000
  C   0.16240602000000     -1.73488274000000     -0.85669092000000
  C   1.61985510000000     -0.05083168000000     -2.70767704000000
  C   0.55551346000000     -2.13957247000000     -2.08976588000000
  C   1.30449556000000     -1.33904149000000     -3.00698988000000
  H   2.21600020000000      0.54412931000000     -3.38778415000000
  H   1.67913794000000     -1.78942635000000     -3.92306412000000
  H   -0.15627119000000     -2.61266542000000     -0.16568861000000
  H   0.37847476000000     -3.15307060000000     -2.35984393000000
