27
Coordinates from ORCA-job 2_5_orca
  Pd  -2.28277255000000     -1.80343490000000      0.83841129000000
  Cl  -3.83962213000000     -3.17974400000000     -0.01667038000000
  Cl  -1.11868930000000     -3.87689786000000      1.62587365000000
  Cl  -3.64526869000000      0.02000395000000      0.25169093000000
  N   -0.92090252000000     -0.24525710000000      1.45751979000000
  C   -1.22388372000000      0.31406316000000      2.61625486000000
  C   -0.72206517000000      1.54158462000000      3.04162394000000
  C   0.08090876000000      2.24905398000000      2.18314557000000
  C   -0.06642451000000      0.36786255000000      0.62081979000000
  C   0.41731265000000      1.67929132000000      0.94386443000000
  H   0.45748697000000      3.23138263000000      2.45994683000000
  H   -1.90131969000000     -0.24699570000000      3.24521875000000
  H   -1.00250725000000      1.92960818000000      4.01141048000000
  C   0.39487471000000     -0.32153362000000     -0.56277979000000
  C   1.24774574000000      2.40231331000000      0.02435012000000
  C   1.55667686000000      1.82469461000000     -1.15133528000000
  C   1.13933298000000      0.47128447000000     -1.47174448000000
  H   1.59720984000000      3.40090915000000      0.29064093000000
  H   2.18314069000000      2.38914522000000     -1.85898029000000
  C   0.18696116000000     -1.66981987000000     -0.86826989000000
  C   1.60574721000000     -0.05247577000000     -2.67871526000000
  C   0.55732504000000     -2.14014082000000     -2.11216165000000
  C   1.26296665000000     -1.35403192000000     -3.00131184000000
  H   2.23871405000000      0.53960170000000     -3.36867409000000
  H   1.65012471000000     -1.78494066000000     -3.91246618000000
  H   -0.16929058000000     -2.51571880000000     -0.20935050000000
  H   0.32015030000000     -3.16840810000000     -2.39350489000000
