27
Coordinates from ORCA-job 2_6_orca
  Pd  -2.26528917000000     -1.82927565000000      0.84345321000000
  Cl  -3.80869489000000     -3.21467579000000     -0.04216105000000
  Cl  -1.08320420000000     -3.86124827000000      1.56124882000000
  Cl  -3.66353946000000     -0.02907224000000      0.33287445000000
  N   -0.92305777000000     -0.24729569000000      1.46641761000000
  C   -1.23697046000000      0.33056585000000      2.61496036000000
  C   -0.73253000000000      1.55898782000000      3.03520566000000
  C   0.07967897000000      2.25476796000000      2.17371978000000
  C   -0.06300672000000      0.36648030000000      0.63560231000000
  C   0.41595447000000      1.67538357000000      0.94362796000000
  H   0.46231409000000      3.24156363000000      2.45192319000000
  H   -1.91739698000000     -0.22367609000000      3.24555875000000
  H   -1.01423431000000      1.95368665000000      4.00270667000000
  C   0.41010386000000     -0.30714212000000     -0.54616863000000
  C   1.25465878000000      2.39417014000000      0.02910732000000
  C   1.56522000000000      1.81139522000000     -1.14594814000000
  C   1.15281350000000      0.47513666000000     -1.46590719000000
  H   1.61530671000000      3.39468617000000      0.29384049000000
  H   2.19459056000000      2.36181653000000     -1.84512045000000
  C   0.18944393000000     -1.68429417000000     -0.88059274000000
  C   1.59940451000000     -0.06535822000000     -2.67407987000000
  C   0.54414807000000     -2.14641505000000     -2.11522417000000
  C   1.25448385000000     -1.34496076000000     -3.00900763000000
  H   2.24385979000000      0.52845993000000     -3.34322774000000
  H   1.62891582000000     -1.78332908000000     -3.91055123000000
  H   -0.17829320000000     -2.44617336000000     -0.23501846000000
  H   0.28043719000000     -3.16373273000000     -2.40916450000000
