38
Coordinates from ORCA-job 3_0_orca
  Pd  0.57367329000000      0.52637776000000     -0.52582498000000
  O   2.19114315000000      1.54785209000000      0.38495266000000
  C   1.69978892000000      2.68174509000000      0.27822369000000
  O   0.48280464000000      2.78082572000000     -0.08137645000000
  C   2.48318608000000      3.91550998000000      0.56142742000000
  H   1.87307053000000      4.67692603000000      1.04304024000000
  H   2.84482038000000      4.32080457000000     -0.38538164000000
  H   3.34878557000000      3.69902817000000      1.18188695000000
  N   -1.21601151000000     -0.37490042000000     -1.15287211000000
  C   -1.27648215000000     -1.04571463000000     -2.46994445000000
  H   -0.95141386000000     -0.39051197000000     -3.27558002000000
  H   -2.29211031000000     -1.38104505000000     -2.71644614000000
  H   -0.64811538000000     -1.92790088000000     -2.49592031000000
  C   -2.14647626000000      0.74977590000000     -1.32272601000000
  H   -2.16203081000000      1.37308806000000     -0.44501492000000
  H   -3.17919272000000      0.43723607000000     -1.50811445000000
  H   -1.82443676000000      1.40829054000000     -2.12975450000000
  C   -1.42780259000000     -0.95916318000000      1.30017953000000
  C   -0.46047055000000     -1.68472299000000      2.00547849000000
  C   -0.33377233000000     -1.62166210000000      3.38618162000000
  C   -1.20541214000000     -0.81888733000000      4.10038719000000
  C   -2.30511684000000     -0.29775622000000      3.42941011000000
  C   -2.22338878000000     -0.07900052000000      2.05330978000000
  H   -1.12038430000000     -0.75872571000000      5.17768429000000
  H   -3.17572096000000     -0.06936081000000      4.03188779000000
  H   0.17196722000000     -2.41231041000000      1.51021764000000
  H   0.42368683000000     -2.19447642000000      3.90572785000000
  H   -3.12424380000000      1.99444098000000      2.09900490000000
  C   -1.71221820000000     -1.32316941000000     -0.13438151000000
  H   -2.80037831000000     -1.45988710000000     -0.19152127000000
  H   -1.30043618000000     -2.31267883000000     -0.34866811000000
  O   1.77334142000000     -0.92635390000000     -1.09928992000000
  C   2.28204696000000     -0.79416471000000     -2.28425492000000
  O   1.85250277000000     -0.00989996000000     -3.10943417000000
  C   3.47368025000000     -1.65195432000000     -2.63698386000000
  H   3.27996538000000     -2.71058252000000     -2.46884600000000
  H   4.31842547000000     -1.37938865000000     -2.00124048000000
  H   3.81272268000000     -1.52768291000000     -3.66540713000000
