38
Coordinates from ORCA-job 3_10_orca
  Pd  0.67232622000000      0.51957054000000     -0.46955037000000
  O   2.13703719000000      1.46105108000000      0.35305899000000
  C   1.61189239000000      2.63897438000000      0.29055576000000
  O   0.44301978000000      2.74992365000000     -0.08990966000000
  C   2.52645129000000      3.83474668000000      0.56744161000000
  H   1.95710903000000      4.64074047000000      1.02839551000000
  H   2.91494584000000      4.23211307000000     -0.37860291000000
  H   3.38858995000000      3.59468204000000      1.19672195000000
  N   -1.28971335000000     -0.42573591000000     -1.19069905000000
  C   -1.25672481000000     -1.22483867000000     -2.43597458000000
  H   -0.89787056000000     -0.57635143000000     -3.23037552000000
  H   -2.29128631000000     -1.53316848000000     -2.64826872000000
  H   -0.60163314000000     -2.09234936000000     -2.33869895000000
  C   -2.18208520000000      0.73484589000000     -1.37112688000000
  H   -2.22799474000000      1.36019948000000     -0.47126094000000
  H   -3.17968941000000      0.34554783000000     -1.62352075000000
  H   -1.79731132000000      1.27177685000000     -2.23650951000000
  C   -1.46704802000000     -0.86860265000000      1.34320500000000
  C   -0.61394149000000     -1.78233160000000      2.03822888000000
  C   -0.39315659000000     -1.66107743000000      3.40257698000000
  C   -1.26647343000000     -0.89287378000000      4.13371006000000
  C   -2.14122084000000      0.00224593000000      3.50555339000000
  C   -2.18353319000000      0.10726249000000      2.15140000000000
  H   -1.15386381000000     -0.76089585000000      5.19977891000000
  H   -2.96904972000000      0.46137779000000      4.03463608000000
  H   -0.04975106000000     -2.54633618000000      1.49169168000000
  H   0.27074070000000     -2.33188866000000      3.93225006000000
  H   -2.69970692000000      1.79713314000000      1.90455257000000
  C   -1.79998169000000     -1.28026123000000     -0.08587303000000
  H   -2.89366227000000     -1.34933155000000     -0.18247140000000
  H   -1.44752341000000     -2.30978405000000     -0.25124302000000
  O   1.83310644000000     -0.96277946000000     -1.13185343000000
  C   2.25075416000000     -0.70091822000000     -2.34847523000000
  O   1.72886453000000      0.05134588000000     -3.15453580000000
  C   3.53158089000000     -1.48182123000000     -2.66654266000000
  H   3.38471637000000     -2.55992360000000     -2.56797867000000
  H   4.35309955000000     -1.20113517000000     -2.00384241000000
  H   3.81291625000000     -1.26109884000000     -3.69529297000000
