38
Coordinates from ORCA-job 3_12_orca
  Pd  0.66594354000000      0.48937520000000     -0.46526334000000
  O   2.12206806000000      1.45397305000000      0.35379949000000
  C   1.61153320000000      2.61683375000000      0.29400444000000
  O   0.42530798000000      2.73568110000000     -0.08866426000000
  C   2.53763393000000      3.79361443000000      0.56969729000000
  H   1.99652013000000      4.62345278000000      1.02304848000000
  H   2.94467785000000      4.18533942000000     -0.37313299000000
  H   3.40058067000000      3.54380796000000      1.20115101000000
  N   -1.29828443000000     -0.45116392000000     -1.17810042000000
  C   -1.25341333000000     -1.29348593000000     -2.40501097000000
  H   -0.87165252000000     -0.66885199000000     -3.21348292000000
  H   -2.28782753000000     -1.61218085000000     -2.62298651000000
  H   -0.58906672000000     -2.16174480000000     -2.26511307000000
  C   -2.19064984000000      0.70666525000000     -1.40444612000000
  H   -2.25490951000000      1.34675326000000     -0.50358111000000
  H   -3.18326202000000      0.30988311000000     -1.67496647000000
  H   -1.78667982000000      1.21739252000000     -2.28113116000000
  C   -1.49095344000000     -0.84526952000000      1.36904520000000
  C   -0.68325778000000     -1.80371107000000      2.04344693000000
  C   -0.44464559000000     -1.70172697000000      3.41693733000000
  C   -1.28073565000000     -0.88218368000000      4.15112371000000
  C   -2.07978321000000      0.10594092000000      3.53367182000000
  C   -2.14196176000000      0.22066365000000      2.15731383000000
  H   -1.16440502000000     -0.76647769000000      5.21653394000000
  H   -2.85592698000000      0.70104219000000      4.04570123000000
  H   -0.16200893000000     -2.60563975000000      1.49150889000000
  H   0.19798740000000     -2.39721156000000      3.94503204000000
  H   -2.51107055000000      1.69216419000000      1.82142687000000
  C   -1.84138766000000     -1.25998887000000     -0.06594024000000
  H   -2.93709520000000     -1.29713833000000     -0.17054555000000
  H   -1.51965774000000     -2.30376934000000     -0.20740633000000
  O   1.85600928000000     -0.95824020000000     -1.15528319000000
  C   2.24356821000000     -0.66712324000000     -2.37190410000000
  O   1.67871432000000      0.06428242000000     -3.15920283000000
  C   3.55021305000000     -1.39527929000000     -2.69019203000000
  H   3.43338733000000     -2.48320388000000     -2.61700326000000
  H   4.36455202000000     -1.11632412000000     -2.00812169000000
  H   3.82020393000000     -1.13865862000000     -3.71025071000000
