38
Coordinates from ORCA-job 3_13_orca
  Pd  0.62720582000000      0.43803617000000     -0.47002453000000
  O   2.11170539000000      1.44636201000000      0.35918988000000
  C   1.62123068000000      2.59767491000000      0.29320830000000
  O   0.41447087000000      2.71948218000000     -0.07795521000000
  C   2.54911008000000      3.74914051000000      0.57342758000000
  H   2.04440193000000      4.59980746000000      1.01781236000000
  H   2.97821692000000      4.12124099000000     -0.36499253000000
  H   3.40706023000000      3.47686370000000      1.20414734000000
  N   -1.29515915000000     -0.48270477000000     -1.15172296000000
  C   -1.25017316000000     -1.36973784000000     -2.35405310000000
  H   -0.83831794000000     -0.79311825000000     -3.18917916000000
  H   -2.27348590000000     -1.71613081000000     -2.59178541000000
  H   -0.58444415000000     -2.23829588000000     -2.17159916000000
  C   -2.19313557000000      0.65545743000000     -1.45609218000000
  H   -2.28334421000000      1.32258546000000     -0.56684412000000
  H   -3.18515020000000      0.27037245000000     -1.73626253000000
  H   -1.77477117000000      1.15691254000000     -2.32956669000000
  C   -1.52574391000000     -0.81782795000000      1.40756662000000
  C   -0.77100103000000     -1.81508599000000      2.05167583000000
  C   -0.53626433000000     -1.75785741000000      3.43752427000000
  C   -1.29092594000000     -0.82681963000000      4.17008682000000
  C   -2.01892289000000      0.21890443000000      3.54960970000000
  C   -2.05762337000000      0.37801925000000      2.13546902000000
  H   -1.17318086000000     -0.77560679000000      5.24145585000000
  H   -2.67482828000000      0.97564049000000      4.06090127000000
  H   -0.31714959000000     -2.67088067000000      1.50101901000000
  H   0.09830208000000     -2.47845193000000      3.95986401000000
  H   -2.29025417000000      1.52009951000000      1.73503196000000
  C   -1.89496346000000     -1.23729812000000     -0.03580048000000
  H   -2.98947599000000     -1.22778663000000     -0.14996147000000
  H   -1.61359570000000     -2.29128888000000     -0.15502640000000
  O   1.87524482000000     -0.93809088000000     -1.18650553000000
  C   2.24961306000000     -0.64716357000000     -2.37629063000000
  O   1.61298415000000      0.08231958000000     -3.17248748000000
  C   3.56958626000000     -1.28252698000000     -2.72913700000000
  H   3.49345328000000     -2.37834640000000     -2.68252114000000
  H   4.37111747000000     -1.00744618000000     -2.01780046000000
  H   3.83665326000000     -0.98494872000000     -3.73060633000000
