38
Coordinates from ORCA-job 3_15_orca
  Pd  0.57342020000000      0.40918065000000     -0.48222815000000
  O   2.11866698000000      1.43439502000000      0.36300408000000
  C   1.62801478000000      2.59961893000000      0.28520699000000
  O   0.42952974000000      2.71665241000000     -0.05975135000000
  C   2.55481752000000      3.74138420000000      0.57460409000000
  H   2.05726100000000      4.59101701000000      1.02004615000000
  H   2.98610123000000      4.08938340000000     -0.36165096000000
  H   3.39618230000000      3.44601218000000      1.20214713000000
  N   -1.28009006000000     -0.49462984000000     -1.13194174000000
  C   -1.24340570000000     -1.38949055000000     -2.31832958000000
  H   -0.82528290000000     -0.85329685000000     -3.17261652000000
  H   -2.25299345000000     -1.76159282000000     -2.57790757000000
  H   -0.59925084000000     -2.25197080000000     -2.13226664000000
  C   -2.17916603000000      0.62049968000000     -1.48261786000000
  H   -2.28593460000000      1.30098253000000     -0.62925907000000
  H   -3.18214228000000      0.25965316000000     -1.75615557000000
  H   -1.77020981000000      1.14553538000000     -2.33999951000000
  C   -1.54738917000000     -0.79774888000000      1.41310525000000
  C   -0.80508396000000     -1.80712954000000      2.07140494000000
  C   -0.61311638000000     -1.77293852000000      3.45212412000000
  C   -1.27485768000000     -0.76437941000000      4.16967709000000
  C   -2.00678797000000      0.25480641000000      3.51312015000000
  C   -1.97745323000000      0.41572303000000      2.10632821000000
  H   -1.17241428000000     -0.77750037000000      5.25455343000000
  H   -2.54788575000000      1.03938015000000      4.06951646000000
  H   -0.40248096000000     -2.67727310000000      1.52046503000000
  H   0.03986014000000     -2.50456633000000      3.96161431000000
  H   -2.23450564000000      1.41056035000000      1.72287648000000
  C   -1.91450722000000     -1.22796406000000     -0.01118295000000
  H   -3.00679702000000     -1.19387340000000     -0.13375463000000
  H   -1.65546706000000     -2.28075124000000     -0.13730997000000
  O   1.86664485000000     -0.91940071000000     -1.18330548000000
  C   2.24284499000000     -0.62817735000000     -2.39173038000000
  O   1.60936651000000      0.05932243000000     -3.15576844000000
  C   3.57761404000000     -1.23815129000000     -2.74855586000000
  H   3.51624049000000     -2.32504156000000     -2.71571619000000
  H   4.35936381000000     -0.96122396000000     -2.03123673000000
  H   3.85412558000000     -0.92212218000000     -3.74532529000000
