38
Coordinates from ORCA-job 3_17_orca
  Pd  0.53525642000000      0.38252319000000     -0.47086117000000
  O   2.10619253000000      1.36788415000000      0.33573909000000
  C   1.60947773000000      2.56498545000000      0.28413589000000
  O   0.43090179000000      2.70678163000000     -0.02517729000000
  C   2.57544619000000      3.69788796000000      0.57453676000000
  H   2.09800868000000      4.56808242000000      1.02291314000000
  H   3.02515021000000      4.00769739000000     -0.36427054000000
  H   3.38681267000000      3.35268624000000      1.20684982000000
  N   -1.30036123000000     -0.53116518000000     -1.12653043000000
  C   -1.21926160000000     -1.48750170000000     -2.25024795000000
  H   -0.78708685000000     -1.01619197000000     -3.12399301000000
  H   -2.20907173000000     -1.88013404000000     -2.52212213000000
  H   -0.60333183000000     -2.33114522000000     -2.00344610000000
  C   -2.16741934000000      0.56733562000000     -1.54824886000000
  H   -2.31112128000000      1.26686769000000     -0.74796497000000
  H   -3.16812181000000      0.20661611000000     -1.82637090000000
  H   -1.74931769000000      1.09015754000000     -2.39576241000000
  C   -1.55709616000000     -0.76219555000000      1.42637493000000
  C   -0.93984916000000     -1.81444297000000      2.12063554000000
  C   -0.75872722000000     -1.78186370000000      3.48802908000000
  C   -1.27887902000000     -0.68841178000000      4.17601996000000
  C   -1.87435272000000      0.42440796000000      3.50370030000000
  C   -1.80859979000000      0.35664543000000      2.15787672000000
  H   -1.19660540000000     -0.76530621000000      5.26725032000000
  H   -2.23960636000000      1.30421508000000      4.07500823000000
  H   -0.63709006000000     -2.70286161000000      1.55667870000000
  H   -0.14241960000000     -2.57183084000000      3.96149538000000
  H   -2.04073331000000      1.24217811000000      1.56853305000000
  C   -1.97204582000000     -1.18350174000000      0.04331475000000
  H   -3.06163241000000     -1.09496736000000     -0.10068413000000
  H   -1.77249774000000     -2.25535990000000     -0.06100350000000
  O   1.86380075000000     -0.91369637000000     -1.18549131000000
  C   2.22220450000000     -0.57534600000000     -2.41052306000000
  O   1.55325783000000      0.05824291000000     -3.16413397000000
  C   3.60766968000000     -1.10510791000000     -2.79228313000000
  H   3.59170261000000     -2.18964519000000     -2.80966892000000
  H   4.34722060000000     -0.81655771000000     -2.05728427000000
  H   3.88988648000000     -0.72717888000000     -3.78143561000000
