38
Coordinates from ORCA-job 3_19_orca
  Pd  0.54158174000000      0.38850405000000     -0.45281643000000
  O   2.08150380000000      1.32239167000000      0.28443605000000
  C   1.60907211000000      2.51572164000000      0.29407064000000
  O   0.41220228000000      2.69518551000000      0.01217630000000
  C   2.57863476000000      3.65478490000000      0.57060937000000
  H   2.11769594000000      4.54466792000000      1.02239236000000
  H   3.05133499000000      3.95353489000000     -0.37548369000000
  H   3.37614365000000      3.28469076000000      1.21394560000000
  N   -1.32806434000000     -0.54880625000000     -1.13114353000000
  C   -1.20384117000000     -1.55401718000000     -2.20742726000000
  H   -0.75984776000000     -1.11688708000000     -3.08965122000000
  H   -2.17991427000000     -1.94961335000000     -2.47468049000000
  H   -0.58923882000000     -2.39153414000000     -1.90027456000000
  C   -2.17023768000000      0.54457910000000     -1.60501911000000
  H   -2.32921324000000      1.26458759000000     -0.81485616000000
  H   -3.15290695000000      0.16448416000000     -1.87636901000000
  H   -1.72760523000000      1.06563337000000     -2.44303487000000
  C   -1.51398518000000     -0.83460525000000      1.43442878000000
  C   -1.02941938000000     -1.85985942000000      2.16049710000000
  C   -0.84773935000000     -1.74767747000000      3.50745334000000
  C   -1.29007476000000     -0.64589021000000      4.21478470000000
  C   -1.71051823000000      0.50340942000000      3.56989240000000
  C   -1.73529706000000      0.31461641000000      2.16964180000000
  H   -1.23459815000000     -0.73032765000000      5.26159772000000
  H   -1.99935269000000      1.44436279000000      4.04644567000000
  H   -0.80159865000000     -2.69745889000000      1.59326464000000
  H   -0.31106154000000     -2.58101026000000      3.95438713000000
  H   -1.94418297000000      1.18093725000000      1.42769957000000
  C   -2.00203016000000     -1.15052145000000      0.04752967000000
  H   -3.08835797000000     -1.02178534000000     -0.06891180000000
  H   -1.84622279000000     -2.22228142000000      0.00672237000000
  O   1.85317706000000     -0.92711537000000     -1.20107185000000
  C   2.21036846000000     -0.55182591000000     -2.40422240000000
  O   1.51212646000000      0.07606861000000     -3.17694424000000
  C   3.61115834000000     -1.01285376000000     -2.82376946000000
  H   3.64627029000000     -2.10436557000000     -2.87581956000000
  H   4.34219577000000     -0.71089900000000     -2.07197991000000
  H   3.91377516000000     -0.60275534000000     -3.79481364000000
