38
Coordinates from ORCA-job 3_21_orca
  Pd  0.54257670000000      0.38695467000000     -0.46624710000000
  O   2.08960198000000      1.33973990000000      0.26536486000000
  C   1.61234737000000      2.52175922000000      0.29321513000000
  O   0.40534751000000      2.67668998000000      0.03533714000000
  C   2.57088019000000      3.64085622000000      0.56683619000000
  H   2.10892825000000      4.52357507000000      1.01310158000000
  H   3.04062911000000      3.95223427000000     -0.37314133000000
  H   3.37127202000000      3.28851113000000      1.21553530000000
  N   -1.31026803000000     -0.53318187000000     -1.12757036000000
  C   -1.20081365000000     -1.54447914000000     -2.20524896000000
  H   -0.75743606000000     -1.09743750000000     -3.09251104000000
  H   -2.19218467000000     -1.93883907000000     -2.47212486000000
  H   -0.57692433000000     -2.38323638000000     -1.89215827000000
  C   -2.17575850000000      0.56346691000000     -1.60518051000000
  H   -2.32814679000000      1.28322109000000     -0.80209899000000
  H   -3.15917422000000      0.16390585000000     -1.88328852000000
  H   -1.72214922000000      1.07972835000000     -2.45061460000000
  C   -1.53141371000000     -0.81614558000000      1.45016393000000
  C   -1.01148201000000     -1.87730151000000      2.17109987000000
  C   -0.82888696000000     -1.75303567000000      3.52099329000000
  C   -1.27371230000000     -0.65652459000000      4.22766410000000
  C   -1.68144718000000      0.46222059000000      3.50653470000000
  C   -1.77788929000000      0.39363257000000      2.10174872000000
  H   -1.24760073000000     -0.70704254000000      5.30406697000000
  H   -1.97961742000000      1.38658140000000      4.02246972000000
  H   -0.76693977000000     -2.75202147000000      1.58981194000000
  H   -0.33986648000000     -2.55674462000000      3.97443753000000
  H   -1.98363125000000      1.19280164000000      1.47197337000000
  C   -1.98355611000000     -1.16251095000000      0.03227531000000
  H   -3.07268463000000     -1.01824139000000     -0.05410642000000
  H   -1.83597916000000     -2.22687141000000     -0.00489549000000
  O   1.84347751000000     -0.93802279000000     -1.21961630000000
  C   2.21062279000000     -0.56923320000000     -2.40711398000000
  O   1.52107255000000      0.09217640000000     -3.16520490000000
  C   3.59923636000000     -1.02186952000000     -2.81229220000000
  H   3.64474517000000     -2.11021691000000     -2.87098805000000
  H   4.33995275000000     -0.71467831000000     -2.07198428000000
  H   3.90394563000000     -0.62065434000000     -3.77915636000000
