38
Coordinates from ORCA-job 3_23_orca
  Pd  0.54919436000000      0.39207573000000     -0.48829359000000
  O   2.11500260000000      1.35951684000000      0.24024197000000
  C   1.60735012000000      2.52642969000000      0.28830161000000
  O   0.39052316000000      2.65757295000000      0.06404888000000
  C   2.56397435000000      3.64380810000000      0.56428977000000
  H   2.08146176000000      4.50278364000000      1.00289718000000
  H   3.01742188000000      3.96385386000000     -0.37099664000000
  H   3.36541516000000      3.30957264000000      1.21721759000000
  N   -1.28918711000000     -0.50513217000000     -1.12736957000000
  C   -1.19765264000000     -1.51149463000000     -2.21696539000000
  H   -0.76038506000000     -1.04613588000000     -3.09779334000000
  H   -2.20170286000000     -1.89708673000000     -2.47128074000000
  H   -0.56516896000000     -2.34642327000000     -1.90466657000000
  C   -2.17380603000000      0.59344001000000     -1.59086850000000
  H   -2.31952336000000      1.31150318000000     -0.77797964000000
  H   -3.15751183000000      0.18058234000000     -1.87901155000000
  H   -1.72108847000000      1.10461437000000     -2.44426055000000
  C   -1.54965840000000     -0.81832913000000      1.42580373000000
  C   -0.97329025000000     -1.87267146000000      2.14853792000000
  C   -0.79389932000000     -1.76205877000000      3.51440787000000
  C   -1.24677650000000     -0.65974187000000      4.22408093000000
  C   -1.68564714000000      0.40052454000000      3.44318121000000
  C   -1.82533126000000      0.40996604000000      2.05993878000000
  H   -1.25402320000000     -0.66346612000000      5.33097838000000
  H   -1.99844698000000      1.25813816000000      3.98758892000000
  H   -0.68698371000000     -2.79571664000000      1.60882165000000
  H   -0.32482292000000     -2.56268234000000      4.03985002000000
  H   -2.10574398000000      1.29097947000000      1.53680410000000
  C   -1.95329695000000     -1.17286267000000      0.03449020000000
  H   -3.03596678000000     -1.02934394000000     -0.04498000000000
  H   -1.79955409000000     -2.24880623000000     -0.04870712000000
  O   1.82153054000000     -0.96172665000000     -1.22693284000000
  C   2.20736288000000     -0.58936464000000     -2.41030291000000
  O   1.54326621000000      0.11232089000000     -3.15749793000000
  C   3.58926302000000     -1.06509326000000     -2.79194000000000
  H   3.62879426000000     -2.14685464000000     -2.84700547000000
  H   4.33242529000000     -0.74624564000000     -2.06467162000000
  H   3.88014330000000     -0.67457056000000     -3.75725595000000
