38
Coordinates from ORCA-job 3_26_orca
  Pd  0.56471736000000      0.40658447000000     -0.50415110000000
  O   2.13853257000000      1.35975160000000      0.20374633000000
  C   1.60552577000000      2.51589234000000      0.28710996000000
  O   0.37448165000000      2.63164899000000      0.08971180000000
  C   2.54568254000000      3.65585773000000      0.56505004000000
  H   2.03649340000000      4.50955004000000      1.00535549000000
  H   2.99797440000000      3.98206642000000     -0.37772688000000
  H   3.36295897000000      3.33381608000000      1.21875076000000
  N   -1.28677367000000     -0.48793745000000     -1.12425706000000
  C   -1.19023242000000     -1.46055567000000     -2.22545753000000
  H   -0.76077208000000     -0.99455254000000     -3.10222583000000
  H   -2.18910089000000     -1.84345738000000     -2.46475966000000
  H   -0.56003074000000     -2.29279261000000     -1.92987698000000
  C   -2.15619420000000      0.61177404000000     -1.56630224000000
  H   -2.30698033000000      1.33392247000000     -0.76976028000000
  H   -3.13164382000000      0.21807777000000     -1.86657789000000
  H   -1.72376291000000      1.11854389000000     -2.42359231000000
  C   -1.52163520000000     -0.82983135000000      1.39628874000000
  C   -0.93090302000000     -1.85342182000000      2.13645785000000
  C   -0.74960212000000     -1.80679296000000      3.51818932000000
  C   -1.21274553000000     -0.68775948000000      4.17511128000000
  C   -1.72917363000000      0.36589060000000      3.43821266000000
  C   -1.84894188000000      0.35898174000000      2.05984275000000
  H   -1.23099716000000     -0.60488597000000      5.26306626000000
  H   -2.06585531000000      1.22204572000000      3.98592466000000
  H   -0.61968610000000     -2.77705927000000      1.65778827000000
  H   -0.28663143000000     -2.60690159000000      4.10821336000000
  H   -2.24040931000000      1.35169079000000      1.62235230000000
  C   -1.93834278000000     -1.19496186000000      0.00263406000000
  H   -3.01405510000000     -1.04680498000000     -0.06153508000000
  H   -1.76016129000000     -2.26282114000000     -0.11632498000000
  O   1.78584356000000     -0.98653254000000     -1.22987539000000
  C   2.19890180000000     -0.59869489000000     -2.40317452000000
  O   1.56780767000000      0.12511624000000     -3.16114872000000
  C   3.57756024000000     -1.11460304000000     -2.77687337000000
  H   3.60875653000000     -2.20685571000000     -2.81201149000000
  H   4.32056888000000     -0.78776660000000     -2.04243503000000
  H   3.85195678000000     -0.72355318000000     -3.75500316000000
