38
Coordinates from ORCA-job 3_27_orca
  Pd  0.56657689000000      0.41010645000000     -0.50509737000000
  O   2.14102795000000      1.35766364000000      0.19060051000000
  C   1.60590491000000      2.51085763000000      0.28812202000000
  O   0.37454986000000      2.62022648000000      0.09837129000000
  C   2.53991171000000      3.65689612000000      0.56543924000000
  H   2.02749939000000      4.51019728000000      1.00599549000000
  H   2.99416222000000      3.98248356000000     -0.37829776000000
  H   3.35917973000000      3.33622191000000      1.21770097000000
  N   -1.28564167000000     -0.48485164000000     -1.12526482000000
  C   -1.18637508000000     -1.45238500000000     -2.22567645000000
  H   -0.75813863000000     -0.98778705000000     -3.10273903000000
  H   -2.18451407000000     -1.83596071000000     -2.46149492000000
  H   -0.55684227000000     -2.28469058000000     -1.93005346000000
  C   -2.15225808000000      0.61507991000000     -1.56481459000000
  H   -2.30470957000000      1.33942212000000     -0.77090846000000
  H   -3.12632723000000      0.22424374000000     -1.86649421000000
  H   -1.72071375000000      1.12004522000000     -2.42203981000000
  C   -1.50997108000000     -0.83335616000000      1.39759048000000
  C   -0.92270243000000     -1.85951443000000      2.14579509000000
  C   -0.74458440000000     -1.81125497000000      3.52231709000000
  C   -1.20918961000000     -0.69098654000000      4.16891006000000
  C   -1.72944535000000      0.36851216000000      3.44127715000000
  C   -1.85784867000000      0.35857058000000      2.06472944000000
  H   -1.22251725000000     -0.59212836000000      5.24291099000000
  H   -2.07097493000000      1.23043245000000      3.98610795000000
  H   -0.61579725000000     -2.77116057000000      1.66516918000000
  H   -0.29030258000000     -2.61483469000000      4.11262699000000
  H   -2.25492783000000      1.33324776000000      1.63439538000000
  C   -1.93505357000000     -1.19611768000000     -0.00300365000000
  H   -3.01595789000000     -1.04804711000000     -0.06734838000000
  H   -1.75619172000000     -2.26357740000000     -0.12848016000000
  O   1.77550183000000     -0.99104256000000     -1.23370519000000
  C   2.19664639000000     -0.60073414000000     -2.40365704000000
  O   1.57276508000000      0.12710259000000     -3.15952877000000
  C   3.57379007000000     -1.11985155000000     -2.77578482000000
  H   3.60666896000000     -2.21342926000000     -2.80674728000000
  H   4.31574373000000     -0.79237101000000     -2.03885644000000
  H   3.84751518000000     -0.72784696000000     -3.75496210000000
