38
Coordinates from ORCA-job 3_29_orca
  Pd  0.55763237000000      0.41128356000000     -0.50749003000000
  O   2.15481157000000      1.35101807000000      0.14603235000000
  C   1.61076138000000      2.49309183000000      0.29040580000000
  O   0.37678699000000      2.57351914000000      0.13299217000000
  C   2.52220093000000      3.65319708000000      0.56605383000000
  H   2.00731862000000      4.50434435000000      1.00573180000000
  H   2.98146865000000      3.97128624000000     -0.37360284000000
  H   3.33845943000000      3.33480742000000      1.21191321000000
  N   -1.27355835000000     -0.47157075000000     -1.12367676000000
  C   -1.16974723000000     -1.44486850000000     -2.22337730000000
  H   -0.74196309000000     -0.98173406000000     -3.10530141000000
  H   -2.16964370000000     -1.83117282000000     -2.45127118000000
  H   -0.54088366000000     -2.27407217000000     -1.91526905000000
  C   -2.14321444000000      0.62514069000000     -1.57339647000000
  H   -2.29898363000000      1.35504573000000     -0.78188611000000
  H   -3.11921006000000      0.23271312000000     -1.87577138000000
  H   -1.69979396000000      1.12298753000000     -2.42955408000000
  C   -1.49170766000000     -0.83218064000000      1.42491392000000
  C   -0.91683196000000     -1.87515799000000      2.17679638000000
  C   -0.75049676000000     -1.80961446000000      3.54469671000000
  C   -1.20944003000000     -0.66852673000000      4.16217990000000
  C   -1.71159984000000      0.40583398000000      3.44908653000000
  C   -1.86357291000000      0.35250139000000      2.07998463000000
  H   -1.18878576000000     -0.56321629000000      5.21899425000000
  H   -2.04725696000000      1.28845048000000      3.98677487000000
  H   -0.62750260000000     -2.78024639000000      1.66278983000000
  H   -0.33349899000000     -2.63187183000000      4.10031655000000
  H   -2.25958004000000      1.20914582000000      1.63545330000000
  C   -1.92969462000000     -1.18702810000000      0.01042689000000
  H   -3.02416276000000     -1.04480305000000     -0.08355146000000
  H   -1.75938835000000     -2.25654357000000     -0.14963046000000
  O   1.74232155000000     -1.00250602000000     -1.25118080000000
  C   2.18820318000000     -0.60943213000000     -2.40796855000000
  O   1.58126661000000      0.13758561000000     -3.15389508000000
  C   3.56496151000000     -1.11895466000000     -2.77754230000000
  H   3.60690175000000     -2.20794001000000     -2.80078744000000
  H   4.29456614000000     -0.79100456000000     -2.03611367000000
  H   3.84191240000000     -0.72288944000000     -3.75281673000000
