38
Coordinates from ORCA-job 3_4_orca
  Pd  0.68867928000000      0.55400478000000     -0.46891092000000
  O   2.15236193000000      1.44729222000000      0.34755763000000
  C   1.61324031000000      2.67379898000000      0.29190542000000
  O   0.44870425000000      2.76376549000000     -0.09463312000000
  C   2.51690071000000      3.87470016000000      0.56511952000000
  H   1.91918091000000      4.65672810000000      1.03351865000000
  H   2.88700012000000      4.27658128000000     -0.38443690000000
  H   3.37725916000000      3.64234295000000      1.19283377000000
  N   -1.28693714000000     -0.40060842000000     -1.21176949000000
  C   -1.26126936000000     -1.15953879000000     -2.46934014000000
  H   -0.92289519000000     -0.49082218000000     -3.24242497000000
  H   -2.29051538000000     -1.45692048000000     -2.66901943000000
  H   -0.61190764000000     -2.02842842000000     -2.40723217000000
  C   -2.17590066000000      0.76334217000000     -1.34162041000000
  H   -2.20240080000000      1.37444914000000     -0.43867466000000
  H   -3.17273279000000      0.37851678000000     -1.57458502000000
  H   -1.80706834000000      1.32146456000000     -2.19338660000000
  C   -1.44142019000000     -0.88451093000000      1.32566641000000
  C   -0.55400648000000     -1.76375723000000      2.03221715000000
  C   -0.34038472000000     -1.61930002000000      3.38999196000000
  C   -1.25730754000000     -0.90730221000000      4.11795989000000
  C   -2.20246366000000     -0.08753260000000      3.49350599000000
  C   -2.22262903000000      0.00013199000000      2.13672782000000
  H   -1.14472269000000     -0.75472062000000      5.18086266000000
  H   -3.06594961000000      0.23221703000000      4.01879278000000
  H   0.05558081000000     -2.49007470000000      1.49134091000000
  H   0.33649701000000     -2.26905655000000      3.91889153000000
  H   -2.87695543000000      1.88448393000000      1.98329662000000
  C   -1.76326901000000     -1.30089784000000     -0.10261874000000
  H   -2.85157931000000     -1.39727951000000     -0.19511389000000
  H   -1.37885278000000     -2.31602881000000     -0.29283952000000
  O   1.81014518000000     -0.97245637000000     -1.10374067000000
  C   2.24888810000000     -0.71825902000000     -2.33945579000000
  O   1.78163770000000      0.03087373000000     -3.14352196000000
  C   3.51744183000000     -1.56590316000000     -2.64501726000000
  H   3.33871631000000     -2.63242082000000     -2.52182895000000
  H   4.34214315000000     -1.28081925000000     -1.99946448000000
  H   3.80487764000000     -1.37556878000000     -3.68015138000000
