38
Coordinates from ORCA-job 3_8_orca
  Pd  0.73239402000000      0.54744553000000     -0.44291284000000
  O   2.11566535000000      1.41842657000000      0.33175431000000
  C   1.59333415000000      2.64311977000000      0.30065329000000
  O   0.42106105000000      2.74899700000000     -0.10096682000000
  C   2.53193849000000      3.83039031000000      0.56858683000000
  H   1.96112611000000      4.64018715000000      1.02665934000000
  H   2.92214808000000      4.23370424000000     -0.38254578000000
  H   3.39757487000000      3.59105824000000      1.20052434000000
  N   -1.31315329000000     -0.42723435000000     -1.21374889000000
  C   -1.26025715000000     -1.24124001000000     -2.45099493000000
  H   -0.89620030000000     -0.58113466000000     -3.22390178000000
  H   -2.29026423000000     -1.53281365000000     -2.63833316000000
  H   -0.58654390000000     -2.11272238000000     -2.33038563000000
  C   -2.19460696000000      0.74692438000000     -1.37103396000000
  H   -2.23433816000000      1.36929786000000     -0.44954594000000
  H   -3.17412599000000      0.33587599000000     -1.63069631000000
  H   -1.79387114000000      1.25760769000000     -2.24702872000000
  C   -1.45760505000000     -0.84671495000000      1.35628304000000
  C   -0.63298596000000     -1.80298204000000      2.03949012000000
  C   -0.37015289000000     -1.64519579000000      3.39697297000000
  C   -1.28756621000000     -0.93447277000000      4.14351305000000
  C   -2.11776460000000      0.04887972000000      3.54103141000000
  C   -2.20029753000000      0.09284748000000      2.16107543000000
  H   -1.16093730000000     -0.75672995000000      5.18769932000000
  H   -2.97192954000000      0.49306936000000      4.02496300000000
  H   -0.05142490000000     -2.55739606000000      1.48286288000000
  H   0.26401874000000     -2.33729470000000      3.93396822000000
  H   -2.67007865000000      1.79599555000000      1.88939595000000
  C   -1.80626767000000     -1.27503913000000     -0.08679365000000
  H   -2.89848310000000     -1.34477904000000     -0.18892430000000
  H   -1.45113961000000     -2.31540198000000     -0.24472526000000
  O   1.84057895000000     -0.98366950000000     -1.12924249000000
  C   2.24032410000000     -0.68530004000000     -2.35692978000000
  O   1.71814252000000      0.06486545000000     -3.16824469000000
  C   3.53728883000000     -1.47555946000000     -2.66701231000000
  H   3.38976797000000     -2.56159142000000     -2.56975915000000
  H   4.36327634000000     -1.19237638000000     -1.99789010000000
  H   3.80617147000000     -1.24657571000000     -3.69294262000000
