38
Coordinates from ORCA-job 3_9_orca
  Pd  0.67166610000000      0.54714728000000     -0.47644756000000
  O   2.15649343000000      1.46141201000000      0.35336157000000
  C   1.62038924000000      2.67195008000000      0.28860650000000
  O   0.45623379000000      2.76448288000000     -0.09145606000000
  C   2.51392319000000      3.87659807000000      0.56494342000000
  H   1.91666136000000      4.65783188000000      1.03428076000000
  H   2.88403179000000      4.27812984000000     -0.38388458000000
  H   3.37449465000000      3.64541373000000      1.19167054000000
  N   -1.27776293000000     -0.39956985000000     -1.20197062000000
  C   -1.26226788000000     -1.15117625000000     -2.46597271000000
  H   -0.92436153000000     -0.48557216000000     -3.24585352000000
  H   -2.29110465000000     -1.45419626000000     -2.67348364000000
  H   -0.61609213000000     -2.02082611000000     -2.41249864000000
  C   -2.17232853000000      0.75917626000000     -1.34122634000000
  H   -2.19951965000000      1.37256530000000     -0.44321475000000
  H   -3.17453437000000      0.38308060000000     -1.57050592000000
  H   -1.80842616000000      1.32825759000000     -2.18914339000000
  C   -1.44290557000000     -0.89284358000000      1.32220585000000
  C   -0.54600949000000     -1.75584593000000      2.03067362000000
  C   -0.34545869000000     -1.62308310000000      3.39003058000000
  C   -1.24994921000000     -0.89476684000000      4.11713056000000
  C   -2.21033504000000     -0.10648539000000      3.48319797000000
  C   -2.21927485000000     -0.00054577000000      2.12940456000000
  H   -1.14231005000000     -0.75579776000000      5.18253102000000
  H   -3.07204570000000      0.21402737000000      4.02247959000000
  H   0.06087244000000     -2.48504362000000      1.49399294000000
  H   0.34202538000000     -2.26545152000000      3.91863722000000
  H   -2.89295847000000      1.89200894000000      1.99124661000000
  C   -1.75970091000000     -1.30207335000000     -0.10470875000000
  H   -2.84889877000000     -1.40107819000000     -0.19330213000000
  H   -1.37514447000000     -2.31504070000000     -0.29630831000000
  O   1.80727055000000     -0.96496281000000     -1.10589791000000
  C   2.25596218000000     -0.73070865000000     -2.32914107000000
  O   1.78388997000000      0.03102691000000     -3.14378151000000
  C   3.51299406000000     -1.56921811000000     -2.64563938000000
  H   3.33532148000000     -2.63570998000000     -2.51928136000000
  H   4.33982571000000     -1.28630324000000     -2.00034081000000
  H   3.80689707000000     -1.38486722000000     -3.67991834000000
