27
Coordinates from ORCA-job reaction-2-rct-pbeh3c-orca_opt
  Pd  -2.36847731915192     -1.69691015802190      0.89604151945797
  Cl  -4.15402459438012     -2.99937267472911      0.37484742928274
  Cl  -1.28525082751525     -3.44457736794030      1.98519092980285
  Cl  -3.30857087445173      0.17647188596698     -0.09667784642689
  N   -0.80634267938621     -0.39802027979373      1.47054265824226
  C   -0.98984371933132      0.04110965910569      2.69977075252654
  C   -0.50216102029617      1.26841375057527      3.14824097296935
  C   0.15314597132476      2.06963362230178      2.25209267389174
  C   -0.02806010020347      0.29967892736502      0.61732269105178
  C   0.40861068252441      1.59589736400035      0.95973315446654
  H   0.48735472466106      3.06261917859203      2.52852468783630
  H   -1.57338316008138     -0.59226698931471      3.35421339208354
  H   -0.69221898421828      1.58300445409361      4.16432319140475
  C   0.39457312301495     -0.27339514449532     -0.64142800406164
  C   1.07007092400540      2.40426336438989     -0.01345694930906
  C   1.32399628204828      1.92435949823190     -1.24759562848083
  C   1.03095392736658      0.56627116335571     -1.58217300492844
  H   1.34230039901903      3.41778921847645      0.25510628332820
  H   1.79813222679448      2.54990805870121     -1.99423293612759
  C   0.28516683458691     -1.64467330740075     -0.93073184182644
  C   1.43249880824563      0.04119303790228     -2.82155307158964
  C   0.71148570329026     -2.13869242963068     -2.14047389915189
  C   1.26351062372470     -1.29053589144116     -3.10509401148909
  H   1.89614159101705      0.70186754726289     -3.54446558428400
  H   1.58034653372468     -1.68827016546510     -4.06076745541110
  H   -0.08934320043438     -2.33744747612671     -0.18994444960616
  H   0.61937812410205     -3.19829884596163     -2.33735565365179
