38
Coordinates from ORCA-job 10_0_orca
  Pd  0.32440482000000      0.10145863000000     -0.14851925000000
  O   1.90767874000000      1.21294429000000      0.76632442000000
  C   1.84403432000000      2.42949254000000      0.57981383000000
  O   0.82321867000000      2.96810552000000     -0.00961909000000
  C   3.03469913000000      3.31895716000000      0.78914030000000
  H   2.77502468000000      4.28612228000000      1.22377179000000
  H   3.53486096000000      3.54691630000000     -0.15685617000000
  H   3.76737293000000      2.82846439000000      1.42242475000000
  N   -1.21580971000000     -1.06682680000000     -0.88309379000000
  C   -0.75295478000000     -2.45773600000000     -1.00785261000000
  H   0.11621154000000     -2.52745093000000     -1.65356059000000
  H   -1.52060174000000     -3.10119831000000     -1.45595346000000
  H   -0.46823164000000     -2.86125544000000     -0.04114257000000
  C   -1.66930935000000     -0.62458592000000     -2.20849923000000
  H   -1.89444334000000      0.43867175000000     -2.19739123000000
  H   -2.56192778000000     -1.17294260000000     -2.53452661000000
  H   -0.91812043000000     -0.83134984000000     -2.96357154000000
  C   -1.95831286000000     -1.00770362000000      1.48023637000000
  C   -2.69436674000000     -1.59013105000000      2.50358561000000
  C   -2.29182742000000     -1.49037413000000      3.82480319000000
  C   -1.14101061000000     -0.80113181000000      4.14813134000000
  C   -0.38981716000000     -0.23926123000000      3.12465363000000
  C   -0.82711734000000     -0.28153838000000      1.80886347000000
  H   -0.81349828000000     -0.72427201000000      5.17804493000000
  H   0.55033653000000      0.17445259000000      3.46879336000000
  H   -3.60046227000000     -2.14146944000000      2.27887566000000
  H   -2.87143311000000     -1.94876383000000      4.61490325000000
  H   -0.33255061000000      4.17260517000000      0.31567098000000
  C   -2.36677583000000     -1.02178816000000      0.04511100000000
  H   -2.93855633000000     -0.10967172000000     -0.15295755000000
  H   -3.06458392000000     -1.85343325000000     -0.12084953000000
  O   1.25546591000000      0.75610560000000     -1.87978727000000
  C   1.99087257000000     -0.03394779000000     -2.56585316000000
  O   2.02327808000000     -1.23976463000000     -2.38559849000000
  C   2.89259480000000      0.59817975000000     -3.60689481000000
  H   3.25466195000000     -0.13685154000000     -4.32449943000000
  H   3.76925847000000      1.02270274000000     -3.10959520000000
  H   2.42772831000000      1.40826970000000     -4.16651514000000
