38
Coordinates from ORCA-job 10_17_orca
  Pd  0.24337904000000      0.14171874000000     -0.07356569000000
  O   1.69278787000000      1.46144780000000      0.74530592000000
  C   1.66340578000000      2.61153659000000      0.39180206000000
  O   0.59693504000000      3.27386913000000     -0.02739072000000
  C   2.82196479000000      3.56299368000000      0.67368567000000
  H   2.63320482000000      4.54543665000000      1.17619845000000
  H   3.32391053000000      3.75617051000000     -0.27302201000000
  H   3.50119421000000      3.01142642000000      1.28542278000000
  N   -1.26699207000000     -0.96915541000000     -0.88653546000000
  C   -0.85006798000000     -2.35110584000000     -1.16902179000000
  H   -0.02486683000000     -2.33771504000000     -1.85526457000000
  H   -1.68609523000000     -2.89547167000000     -1.60698892000000
  H   -0.54104071000000     -2.87330525000000     -0.27318238000000
  C   -1.74913426000000     -0.35649548000000     -2.12622247000000
  H   -1.92024490000000      0.70924200000000     -2.00992432000000
  H   -2.68068030000000     -0.82823910000000     -2.42109237000000
  H   -1.01776864000000     -0.49733628000000     -2.90315531000000
  C   -1.84437441000000     -1.15252876000000      1.47374446000000
  C   -2.53400791000000     -1.82984639000000      2.46016359000000
  C   -2.11466774000000     -1.70104845000000      3.77367831000000
  C   -1.06159130000000     -0.85135743000000      4.07913357000000
  C   -0.36015611000000     -0.16750707000000      3.08386833000000
  C   -0.70719229000000     -0.35753333000000      1.71709728000000
  H   -0.79243169000000     -0.72046118000000      5.11593299000000
  H   0.38102762000000      0.60153615000000      3.34066976000000
  H   -3.37671405000000     -2.43596519000000      2.18107365000000
  H   -2.63963249000000     -2.26219821000000      4.52296877000000
  H   0.13026661000000      3.33710827000000      0.83890784000000
  C   -2.37784454000000     -1.01806839000000      0.09448511000000
  H   -2.93830421000000     -0.08837611000000      0.00525601000000
  H   -3.07874057000000     -1.81858738000000     -0.15118540000000
  O   1.30042320000000      0.58806345000000     -1.83518858000000
  C   2.08769473000000     -0.25787025000000     -2.41984513000000
  O   2.13123423000000     -1.45222723000000     -2.20243321000000
  C   3.05144536000000      0.31332262000000     -3.48117834000000
  H   3.41037111000000     -0.48850564000000     -4.12466630000000
  H   3.93611511000000      0.73057342000000     -3.00908616000000
  H   2.63390851000000      1.09465628000000     -4.11054280000000
