38
Coordinates from ORCA-job 10_13_orca
  Pd  0.20954196000000      0.19322804000000      0.06089683000000
  O   1.66737722000000      1.59197154000000      0.62629974000000
  C   1.66114168000000      2.68451053000000      0.45035920000000
  O   0.43605071000000      3.13146128000000     -0.11148664000000
  C   2.86936842000000      3.53712127000000      0.71191022000000
  H   2.63622221000000      4.47107968000000      1.19253040000000
  H   3.35602462000000      3.69407604000000     -0.25472681000000
  H   3.63752087000000      3.00095788000000      1.33470105000000
  N   -1.28010021000000     -0.97947901000000     -0.86548300000000
  C   -0.85229334000000     -2.36385216000000     -1.19482312000000
  H   -0.01736141000000     -2.32989770000000     -1.91177992000000
  H   -1.71559815000000     -2.90370891000000     -1.62956587000000
  H   -0.54321140000000     -2.87867879000000     -0.27742718000000
  C   -1.75538582000000     -0.36866013000000     -2.13459686000000
  H   -1.92434312000000      0.70144111000000     -2.02219310000000
  H   -2.71893077000000     -0.83706553000000     -2.41574062000000
  H   -1.01205883000000     -0.48536928000000     -2.93288310000000
  C   -1.82053370000000     -1.10490429000000      1.49077583000000
  C   -2.51787682000000     -1.80669878000000      2.46986207000000
  C   -2.14148885000000     -1.72673071000000      3.79959308000000
  C   -1.09222751000000     -0.84056251000000      4.08068908000000
  C   -0.35705404000000     -0.12305731000000      3.09099022000000
  C   -0.65521013000000     -0.36162555000000      1.76398952000000
  H   -0.80800118000000     -0.75854039000000      5.11691423000000
  H   0.33027834000000      0.68794855000000      3.41370462000000
  H   -3.34465148000000     -2.47599670000000      2.19984969000000
  H   -2.67138447000000     -2.32688731000000      4.57459035000000
  H   0.15282798000000      3.35925927000000      0.78421331000000
  C   -2.38560495000000     -1.01752201000000      0.10255595000000
  H   -2.95885198000000     -0.08015724000000     -0.02690487000000
  H   -3.06442763000000     -1.85109844000000     -0.15087856000000
  O   1.31637523000000      0.60311806000000     -1.85774058000000
  C   2.08230366000000     -0.23738835000000     -2.45035249000000
  O   2.14052003000000     -1.44349316000000     -2.21803986000000
  C   3.06987446000000      0.31088632000000     -3.50932355000000
  H   3.44470192000000     -0.49691925000000     -4.14888364000000
  H   3.95659042000000      0.73429898000000     -3.01502512000000
  H   2.65739982000000      1.10905740000000     -4.13548298000000
