38
Coordinates from ORCA-job 10_18_orca
  Pd  0.25116449000000      0.11866831000000     -0.07682821000000
  O   1.67587116000000      1.45215398000000      0.75439042000000
  C   1.69553609000000      2.60997554000000      0.42586763000000
  O   0.63014673000000      3.33167149000000      0.02251035000000
  C   2.78733484000000      3.57209012000000      0.64135052000000
  H   2.60721854000000      4.56192063000000      1.14516597000000
  H   3.30495741000000      3.80618607000000     -0.29465664000000
  H   3.45025437000000      3.02142577000000      1.26775167000000
  N   -1.27418093000000     -0.96374998000000     -0.89039525000000
  C   -0.85538547000000     -2.34224861000000     -1.17384598000000
  H   -0.02623462000000     -2.33038289000000     -1.85378727000000
  H   -1.69008568000000     -2.87967089000000     -1.61175886000000
  H   -0.54389675000000     -2.86838205000000     -0.28080055000000
  C   -1.75308613000000     -0.33081970000000     -2.12169637000000
  H   -1.92133266000000      0.73381198000000     -1.98627916000000
  H   -2.67965716000000     -0.80572951000000     -2.42042201000000
  H   -1.02103094000000     -0.47978288000000     -2.89516013000000
  C   -1.84049353000000     -1.15561922000000      1.46339450000000
  C   -2.51704333000000     -1.85116380000000      2.44683104000000
  C   -2.09015647000000     -1.70906715000000      3.75530397000000
  C   -1.04348500000000     -0.85817114000000      4.07387563000000
  C   -0.37026375000000     -0.17067835000000      3.04596901000000
  C   -0.70713419000000     -0.34718353000000      1.67884609000000
  H   -0.77964906000000     -0.70061062000000      5.12382527000000
  H   0.38293022000000      0.57200474000000      3.30541137000000
  H   -3.38298236000000     -2.44736991000000      2.17111580000000
  H   -2.60551083000000     -2.25456681000000      4.50524132000000
  H   0.12044165000000      3.28706928000000      0.87083682000000
  C   -2.37838553000000     -1.02159073000000      0.09548186000000
  H   -2.92832358000000     -0.08929120000000      0.03242989000000
  H   -3.08508740000000     -1.80757797000000     -0.16086736000000
  O   1.30527199000000      0.57926560000000     -1.83554209000000
  C   2.09144384000000     -0.27995593000000     -2.40002460000000
  O   2.13307031000000     -1.47761742000000     -2.17922555000000
  C   3.05270489000000      0.29335276000000     -3.45855649000000
  H   3.40271491000000     -0.51029227000000     -4.09899885000000
  H   3.94103370000000      0.71262381000000     -2.99252947000000
  H   2.63254932000000      1.07001150000000     -4.09406079000000
