38
Coordinates from ORCA-job 10_10_orca
  Pd  0.23616539000000      0.16882062000000      0.07299581000000
  O   1.77331980000000      1.46570823000000      0.63322737000000
  C   1.68815350000000      2.64020014000000      0.50154162000000
  O   0.50758959000000      3.09135546000000     -0.05272644000000
  C   2.96351246000000      3.44455955000000      0.74683498000000
  H   2.66735933000000      4.37775164000000      1.19192653000000
  H   3.42910792000000      3.64548202000000     -0.22429457000000
  H   3.72654263000000      2.94819229000000      1.37949746000000
  N   -1.26694439000000     -1.01329237000000     -0.87957568000000
  C   -0.81621230000000     -2.40766112000000     -1.15165635000000
  H   0.02329951000000     -2.39095090000000     -1.85105767000000
  H   -1.66436113000000     -2.96185161000000     -1.58654873000000
  H   -0.52144332000000     -2.86798268000000     -0.21086425000000
  C   -1.73703208000000     -0.44793614000000     -2.17356599000000
  H   -1.91690284000000      0.62298135000000     -2.07171119000000
  H   -2.67849145000000     -0.94160056000000     -2.45139825000000
  H   -0.98540979000000     -0.58939970000000     -2.95190987000000
  C   -1.86120461000000     -1.03887351000000      1.50075776000000
  C   -2.56764621000000     -1.75550366000000      2.48316886000000
  C   -2.19330736000000     -1.66560697000000      3.81843594000000
  C   -1.11569222000000     -0.83719100000000      4.11611179000000
  C   -0.40534899000000     -0.14237609000000      3.10628024000000
  C   -0.66503332000000     -0.29600214000000      1.72407094000000
  H   -0.80774266000000     -0.75623788000000      5.16270183000000
  H   0.37082966000000      0.53241032000000      3.46079746000000
  H   -3.41786817000000     -2.39048350000000      2.23622286000000
  H   -2.72428418000000     -2.21534440000000      4.59472726000000
  H   -0.03687239000000      3.61196021000000      0.58856389000000
  C   -2.39192464000000     -1.01897844000000      0.10050190000000
  H   -2.95164880000000     -0.09524133000000     -0.06758777000000
  H   -3.05565236000000     -1.85918098000000     -0.14368868000000
  O   1.30649255000000      0.68044116000000     -1.88511270000000
  C   2.05386343000000     -0.18138421000000     -2.49006086000000
  O   2.11008523000000     -1.38982055000000     -2.27175380000000
  C   3.02941463000000      0.40261521000000     -3.54926212000000
  H   3.39387522000000     -0.39076965000000     -4.20812442000000
  H   3.90286835000000      0.82130531000000     -3.04241296000000
  H   2.59446015000000      1.20414217000000     -4.15463175000000
