38
Coordinates from ORCA-job 10_1_orca
  Pd  0.30638931000000      0.12047696000000     -0.06834161000000
  O   1.88816649000000      1.24684343000000      0.73725242000000
  C   1.86882492000000      2.46780513000000      0.56268350000000
  O   0.68137487000000      3.03125380000000     -0.03024540000000
  C   3.03519934000000      3.34261139000000      0.79491446000000
  H   2.74895439000000      4.30129305000000      1.21414565000000
  H   3.50980602000000      3.56784491000000     -0.17312609000000
  H   3.76116894000000      2.85979979000000      1.41210521000000
  N   -1.22723390000000     -1.05933071000000     -0.89562897000000
  C   -0.76147559000000     -2.45636568000000     -1.04336470000000
  H   0.09105693000000     -2.49580999000000     -1.69877234000000
  H   -1.55348647000000     -3.06662076000000     -1.48611422000000
  H   -0.48152394000000     -2.85996728000000     -0.08099418000000
  C   -1.68840435000000     -0.58487175000000     -2.21016322000000
  H   -1.89876029000000      0.47965008000000     -2.16829232000000
  H   -2.58706719000000     -1.11919122000000     -2.51301428000000
  H   -0.93452171000000     -0.77616080000000     -2.96023092000000
  C   -1.94151122000000     -1.01062412000000      1.49598507000000
  C   -2.67589845000000     -1.64220854000000      2.49525099000000
  C   -2.27160931000000     -1.52860331000000      3.83241888000000
  C   -1.13758832000000     -0.81700874000000      4.14309279000000
  C   -0.39748998000000     -0.21518961000000      3.14903336000000
  C   -0.76590512000000     -0.26795749000000      1.74377131000000
  H   -0.81124594000000     -0.73338826000000      5.18184777000000
  H   0.49985929000000      0.25212097000000      3.46568310000000
  H   -3.55744882000000     -2.19818454000000      2.27384347000000
  H   -2.83559190000000     -2.00640897000000      4.60745030000000
  H   -0.28350473000000      4.04895890000000      0.36617217000000
  C   -2.38463706000000     -1.01827614000000      0.07025424000000
  H   -2.93860482000000     -0.10903951000000     -0.13338412000000
  H   -3.05892919000000     -1.85263424000000     -0.12769029000000
  O   1.26811959000000      0.75462962000000     -1.88879041000000
  C   2.00221523000000     -0.07818366000000     -2.54720629000000
  O   2.04724758000000     -1.27924556000000     -2.36140202000000
  C   2.93206544000000      0.55991994000000     -3.60201732000000
  H   3.28646287000000     -0.19473172000000     -4.29745924000000
  H   3.79858861000000      0.97562260000000     -3.09492548000000
  H   2.46731556000000      1.36092163000000     -4.16462109000000
