38
Coordinates from ORCA-job 10_16_orca
  Pd  0.23851435000000      0.15603097000000     -0.07192154000000
  O   1.70015665000000      1.45117123000000      0.74583254000000
  C   1.65271073000000      2.63263213000000      0.36906434000000
  O   0.56486468000000      3.24623939000000     -0.05685882000000
  C   2.84426692000000      3.56115036000000      0.69127585000000
  H   2.64470571000000      4.53611539000000      1.19146280000000
  H   3.33076857000000      3.72963634000000     -0.26108289000000
  H   3.52868712000000      3.00780402000000      1.29421568000000
  N   -1.26389592000000     -0.97184847000000     -0.88225703000000
  C   -0.84892815000000     -2.35369432000000     -1.16770048000000
  H   -0.02382323000000     -2.34046386000000     -1.85847197000000
  H   -1.68575478000000     -2.90327464000000     -1.60599693000000
  H   -0.53993217000000     -2.87620222000000     -0.26961966000000
  C   -1.74676521000000     -0.36837376000000     -2.12667680000000
  H   -1.91983808000000      0.69801141000000     -2.02138722000000
  H   -2.68350294000000     -0.83808355000000     -2.42127477000000
  H   -1.01594674000000     -0.50385904000000     -2.90806397000000
  C   -1.84422602000000     -1.15142416000000      1.47708669000000
  C   -2.54023279000000     -1.81783099000000      2.46716572000000
  C   -2.12620096000000     -1.69805088000000      3.78110472000000
  C   -1.06956762000000     -0.84593435000000      4.08004427000000
  C   -0.35270048000000     -0.16498682000000      3.10077454000000
  C   -0.70898270000000     -0.36755280000000      1.74516109000000
  H   -0.79959498000000     -0.73135968000000      5.10795252000000
  H   0.37959163000000      0.62040338000000      3.35841278000000
  H   -3.37149886000000     -2.43191904000000      2.18593429000000
  H   -2.65824484000000     -2.27072261000000      4.53484156000000
  H   0.13915100000000      3.35732892000000      0.82476629000000
  C   -2.37628076000000     -1.01669220000000      0.09271524000000
  H   -2.94473991000000     -0.08593132000000     -0.00847668000000
  H   -3.07637730000000     -1.82514230000000     -0.14673638000000
  O   1.29848962000000      0.58882111000000     -1.83400616000000
  C   2.08667890000000     -0.24295907000000     -2.43125527000000
  O   2.13044627000000     -1.44190979000000     -2.21207874000000
  C   3.05058843000000      0.32048096000000     -3.49187369000000
  H   3.41582415000000     -0.47976436000000     -4.13716886000000
  H   3.93532530000000      0.73846073000000     -3.01655841000000
  H   2.63558552000000      1.10571610000000     -4.11847765000000
