38
Coordinates from ORCA-job 10_25_orca
  Pd  0.25339799000000      0.15042349000000     -0.02177041000000
  O   1.73238504000000      1.46029592000000      0.75242096000000
  C   1.68950741000000      2.64998173000000      0.50982672000000
  O   0.59364270000000      3.31078698000000      0.10746093000000
  C   2.90456367000000      3.50627549000000      0.67371925000000
  H   2.56507498000000      4.44788547000000      1.10504264000000
  H   3.34316258000000      3.76492879000000     -0.29761867000000
  H   3.66609160000000      3.02260347000000      1.31130661000000
  N   -1.27006448000000     -0.98004234000000     -0.89923283000000
  C   -0.83590950000000     -2.36485585000000     -1.17156441000000
  H   0.01640915000000     -2.36107427000000     -1.84128142000000
  H   -1.66977538000000     -2.91915385000000     -1.61449247000000
  H   -0.54376403000000     -2.84421572000000     -0.24170451000000
  C   -1.74007493000000     -0.36585875000000     -2.14596415000000
  H   -1.91883795000000      0.69222782000000     -1.98904346000000
  H   -2.67340530000000     -0.83851456000000     -2.45877124000000
  H   -0.99636402000000     -0.48732201000000     -2.92046084000000
  C   -1.86611500000000     -1.11094331000000      1.44727644000000
  C   -2.52196424000000     -1.80036539000000      2.45046917000000
  C   -2.10327714000000     -1.68563202000000      3.76233216000000
  C   -1.05910635000000     -0.82926609000000      4.04146612000000
  C   -0.36245764000000     -0.17095068000000      3.02328634000000
  C   -0.71795241000000     -0.33370605000000      1.68039907000000
  H   -0.75572216000000     -0.67868677000000      5.06494587000000
  H   0.46917170000000      0.47095012000000      3.31123411000000
  H   -3.37525386000000     -2.40965187000000      2.20513991000000
  H   -2.60149933000000     -2.21846385000000      4.55099010000000
  H   -0.15387996000000      3.36200815000000      0.73661918000000
  C   -2.39895088000000     -1.01927207000000      0.06285490000000
  H   -2.94634810000000     -0.07269359000000     -0.00797811000000
  H   -3.09384902000000     -1.82990763000000     -0.19430376000000
  O   1.29559782000000      0.60340152000000     -1.82403722000000
  C   2.06568148000000     -0.25625962000000     -2.40031419000000
  O   2.10247040000000     -1.45461428000000     -2.16674592000000
  C   3.02494940000000      0.31127324000000     -3.45782785000000
  H   3.37633238000000     -0.48616306000000     -4.11456538000000
  H   3.90071014000000      0.74248128000000     -2.96697980000000
  H   2.57430477000000      1.10113890000000     -4.05788026000000
