38
Coordinates from ORCA-job 10_21_orca
  Pd  0.25509297000000      0.12729112000000     -0.02134164000000
  O   1.69850803000000      1.46529525000000      0.72866200000000
  C   1.69379098000000      2.66558596000000      0.48959971000000
  O   0.60625468000000      3.29393108000000      0.07526031000000
  C   2.87417095000000      3.55049605000000      0.65458265000000
  H   2.56311481000000      4.48551159000000      1.09876997000000
  H   3.31476684000000      3.81043377000000     -0.30532056000000
  H   3.54197220000000      3.01228285000000      1.29853949000000
  N   -1.27862260000000     -0.97259679000000     -0.88180203000000
  C   -0.84809179000000     -2.35124725000000     -1.17730196000000
  H   0.00168559000000     -2.34224826000000     -1.85846082000000
  H   -1.69407168000000     -2.89569250000000     -1.61823753000000
  H   -0.54276702000000     -2.85533820000000     -0.25908510000000
  C   -1.74810461000000     -0.34178008000000     -2.12694382000000
  H   -1.92113401000000      0.72804145000000     -1.97837547000000
  H   -2.68839339000000     -0.81889962000000     -2.43908435000000
  H   -1.00622118000000     -0.48184469000000     -2.91159339000000
  C   -1.84507225000000     -1.12302948000000      1.44422910000000
  C   -2.50434626000000     -1.82761906000000      2.42996412000000
  C   -2.08121602000000     -1.70547795000000      3.75060501000000
  C   -1.04125846000000     -0.83690677000000      4.05007924000000
  C   -0.37782575000000     -0.16513686000000      3.01813636000000
  C   -0.71096535000000     -0.34356495000000      1.68605085000000
  H   -0.77052339000000     -0.69036409000000      5.10081905000000
  H   0.40275014000000      0.50958860000000      3.30324828000000
  H   -3.38120565000000     -2.43430200000000      2.18848857000000
  H   -2.60488279000000     -2.24484158000000      4.53815117000000
  H   -0.00769882000000      3.33050994000000      0.81649377000000
  C   -2.38745396000000     -1.02266159000000      0.07843773000000
  H   -2.93176112000000     -0.07742198000000      0.03144044000000
  H   -3.09267179000000     -1.82256377000000     -0.17879363000000
  O   1.31056521000000      0.58275322000000     -1.84081421000000
  C   2.08298152000000     -0.27278305000000     -2.41026597000000
  O   2.11884069000000     -1.47035511000000     -2.16544027000000
  C   3.04348737000000      0.29550469000000     -3.45472697000000
  H   3.38860945000000     -0.50809492000000     -4.10010167000000
  H   3.93113621000000      0.72487240000000     -2.97529352000000
  H   2.60679345000000      1.07901874000000     -4.07655408000000
