38
Coordinates from ORCA-job 10_24_orca
  Pd  0.25564142000000      0.14809317000000     -0.02346169000000
  O   1.73200459000000      1.46622783000000      0.74849027000000
  C   1.69248727000000      2.64696614000000      0.50014634000000
  O   0.58488688000000      3.30647412000000      0.10062854000000
  C   2.90244601000000      3.51442517000000      0.67158973000000
  H   2.56149891000000      4.45476635000000      1.10288682000000
  H   3.33747555000000      3.77495260000000     -0.30053685000000
  H   3.64641733000000      3.01697706000000      1.31412956000000
  N   -1.26954937000000     -0.97827637000000     -0.89696480000000
  C   -0.83796647000000     -2.36347269000000     -1.17276564000000
  H   0.01313057000000     -2.35717960000000     -1.84467315000000
  H   -1.67534258000000     -2.91465205000000     -1.61497242000000
  H   -0.54352241000000     -2.84606544000000     -0.24513720000000
  C   -1.74159040000000     -0.36187974000000     -2.14191008000000
  H   -1.91884197000000      0.69777840000000     -1.98709217000000
  H   -2.67649263000000     -0.83453572000000     -2.45418459000000
  H   -0.99933922000000     -0.48710484000000     -2.91731668000000
  C   -1.86383920000000     -1.11659528000000      1.44568692000000
  C   -2.51884828000000     -1.80534379000000      2.44889970000000
  C   -2.09880787000000     -1.69114070000000      3.76001368000000
  C   -1.05910163000000     -0.83160876000000      4.04429087000000
  C   -0.36597780000000     -0.17069178000000      3.02754488000000
  C   -0.71931071000000     -0.33779474000000      1.68440037000000
  H   -0.76059605000000     -0.68205471000000      5.06674309000000
  H   0.45658013000000      0.48087430000000      3.31089605000000
  H   -3.37276138000000     -2.41112554000000      2.20256383000000
  H   -2.60277051000000     -2.22309365000000      4.54810881000000
  H   -0.12429054000000      3.36227870000000      0.75169831000000
  C   -2.39788902000000     -1.01974630000000      0.06427753000000
  H   -2.94356847000000     -0.07207529000000      0.00151383000000
  H   -3.09396614000000     -1.82959484000000     -0.19001987000000
  O   1.29771011000000      0.59786394000000     -1.82692440000000
  C   2.06971783000000     -0.25902275000000     -2.40374877000000
  O   2.10584889000000     -1.45626542000000     -2.16745480000000
  C   3.03061614000000      0.30918851000000     -3.45958021000000
  H   3.37923131000000     -0.49083606000000     -4.11284450000000
  H   3.90684705000000      0.73945803000000     -2.96933331000000
  H   2.58119389000000      1.09682089000000     -4.06190435000000
