38
Coordinates from ORCA-job 10_20_orca
  Pd  0.25226699000000      0.12072064000000     -0.03730941000000
  O   1.68454401000000      1.46706136000000      0.73070768000000
  C   1.69396384000000      2.63575934000000      0.46896524000000
  O   0.61341694000000      3.30579221000000      0.05783056000000
  C   2.83595042000000      3.56199148000000      0.64754911000000
  H   2.58418810000000      4.51743660000000      1.11827513000000
  H   3.31077662000000      3.81038581000000     -0.29887496000000
  H   3.49327647000000      3.01634138000000      1.28320248000000
  N   -1.27981366000000     -0.96991246000000     -0.88370926000000
  C   -0.85229171000000     -2.34687913000000     -1.17676967000000
  H   -0.01067540000000     -2.33646291000000     -1.85897393000000
  H   -1.69396867000000     -2.88726246000000     -1.61574026000000
  H   -0.54273008000000     -2.86215319000000     -0.26921616000000
  C   -1.75120316000000     -0.33513206000000     -2.12507113000000
  H   -1.92161190000000      0.73278570000000     -1.98163313000000
  H   -2.68619711000000     -0.81364349000000     -2.42977811000000
  H   -1.01269731000000     -0.48173332000000     -2.90558195000000
  C   -1.83897794000000     -1.13131769000000      1.45450979000000
  C   -2.50796996000000     -1.84029240000000      2.43633302000000
  C   -2.08523737000000     -1.70808090000000      3.75193999000000
  C   -1.04132868000000     -0.84810196000000      4.06332843000000
  C   -0.37955291000000     -0.16546715000000      3.02311729000000
  C   -0.70409152000000     -0.34130634000000      1.68026417000000
  H   -0.77477794000000     -0.69616207000000      5.12075545000000
  H   0.38682162000000      0.53877908000000      3.30725254000000
  H   -3.38591443000000     -2.44471468000000      2.18027028000000
  H   -2.60592851000000     -2.25098569000000      4.52400858000000
  H   0.06314517000000      3.31203651000000      0.83314412000000
  C   -2.38213413000000     -1.02359390000000      0.08901238000000
  H   -2.92918170000000     -0.08391537000000      0.03329733000000
  H   -3.08808590000000     -1.81558121000000     -0.17029262000000
  O   1.31115708000000      0.58381300000000     -1.84333775000000
  C   2.08681737000000     -0.27596308000000     -2.40654125000000
  O   2.12672394000000     -1.47614624000000     -2.17278292000000
  C   3.04799039000000      0.29395472000000     -3.45648259000000
  H   3.39583013000000     -0.50933795000000     -4.09955378000000
  H   3.93826558000000      0.71943515000000     -2.98362921000000
  H   2.62052542000000      1.07541912000000     -4.08738006000000
