38
Coordinates from ORCA-job 10_30_orca
  Pd  0.22610473000000      0.14462498000000     -0.03406237000000
  O   1.61061113000000      1.45506272000000      0.80908806000000
  C   1.68403281000000      2.64534356000000      0.58457701000000
  O   0.67155027000000      3.42361021000000      0.21398360000000
  C   2.89962354000000      3.50683928000000      0.68661960000000
  H   2.65600320000000      4.46482986000000      1.14534949000000
  H   3.32872027000000      3.68896950000000     -0.29648960000000
  H   3.66966393000000      3.03754778000000      1.25823753000000
  N   -1.26640935000000     -0.98692560000000     -0.90256128000000
  C   -0.82035794000000     -2.37311679000000     -1.14765121000000
  H   0.04475255000000     -2.37609502000000     -1.80298206000000
  H   -1.63435106000000     -2.94775843000000     -1.60422248000000
  H   -0.54271708000000     -2.84604770000000     -0.20750053000000
  C   -1.72419484000000     -0.38179656000000     -2.16648594000000
  H   -1.92727658000000      0.68140462000000     -2.02138924000000
  H   -2.64601102000000     -0.87760982000000     -2.50043723000000
  H   -0.96607030000000     -0.49235242000000     -2.93827762000000
  C   -1.88683632000000     -1.07290920000000      1.43838776000000
  C   -2.55227538000000     -1.75809349000000      2.44572589000000
  C   -2.10653936000000     -1.62110796000000      3.75809005000000
  C   -1.01696332000000     -0.80408427000000      4.03328924000000
  C   -0.31817572000000     -0.18642860000000      2.99449200000000
  C   -0.71923731000000     -0.32943105000000      1.66631581000000
  H   -0.70816017000000     -0.65976605000000      5.06620349000000
  H   0.54704927000000      0.39880125000000      3.26517804000000
  H   -3.40924140000000     -2.39513860000000      2.21049342000000
  H   -2.60396656000000     -2.17107221000000      4.55459688000000
  H   -0.15478587000000      3.16408416000000      0.58703845000000
  C   -2.39766256000000     -1.01243663000000      0.04670210000000
  H   -2.95984311000000     -0.08816340000000     -0.08270228000000
  H   -3.08729590000000     -1.82021161000000     -0.21094114000000
  O   1.28465373000000      0.62390304000000     -1.79919633000000
  C   2.03494822000000     -0.24252387000000     -2.38468811000000
  O   2.06192043000000     -1.43745660000000     -2.14090698000000
  C   2.97772943000000      0.33738948000000     -3.43520485000000
  H   3.33487278000000     -0.44052582000000     -4.10054122000000
  H   3.85658003000000      0.76261736000000     -2.94942656000000
  H   2.52296364000000      1.12805837000000     -4.02677374000000
