38
Coordinates from ORCA-job 10_4_orca
  Pd  0.26299776000000      0.16041802000000      0.05529960000000
  O   1.84652159000000      1.36473709000000      0.66932157000000
  C   1.78390343000000      2.56116585000000      0.50439434000000
  O   0.43234605000000      3.18752866000000      0.00389448000000
  C   3.00644826000000      3.41342573000000      0.76307511000000
  H   2.68608170000000      4.34833217000000      1.19350850000000
  H   3.45374472000000      3.62528023000000     -0.20639087000000
  H   3.75210638000000      2.92639525000000      1.39479743000000
  N   -1.25887571000000     -1.03280660000000     -0.89650922000000
  C   -0.80163409000000     -2.42648756000000     -1.13128423000000
  H   0.03680448000000     -2.42008548000000     -1.81684649000000
  H   -1.63522290000000     -2.98531326000000     -1.56455182000000
  H   -0.51139667000000     -2.86222138000000     -0.18172692000000
  C   -1.72821895000000     -0.48015711000000     -2.19108104000000
  H   -1.91240070000000      0.58529807000000     -2.09422231000000
  H   -2.65491117000000     -0.98714885000000     -2.46706846000000
  H   -0.97667547000000     -0.63830110000000     -2.95652050000000
  C   -1.88276232000000     -1.01425501000000      1.50862540000000
  C   -2.58944273000000     -1.73848085000000      2.49355600000000
  C   -2.21445988000000     -1.63239302000000      3.82365049000000
  C   -1.12470370000000     -0.84308056000000      4.13619787000000
  C   -0.42980031000000     -0.15301625000000      3.12620425000000
  C   -0.68179222000000     -0.26599282000000      1.70168692000000
  H   -0.80694064000000     -0.75317599000000      5.18287387000000
  H   0.38903686000000      0.45161580000000      3.47615209000000
  H   -3.45556754000000     -2.34821905000000      2.25186603000000
  H   -2.74488521000000     -2.15726111000000      4.59713215000000
  H   -0.10983466000000      3.69641267000000      0.46027099000000
  C   -2.39464398000000     -1.02129613000000      0.10261193000000
  H   -2.94737585000000     -0.10203081000000     -0.08292912000000
  H   -3.05229215000000     -1.85711465000000     -0.13861904000000
  O   1.30063693000000      0.71637530000000     -1.89944150000000
  C   2.04339585000000     -0.15904902000000     -2.50166447000000
  O   2.09635257000000     -1.36600117000000     -2.29577796000000
  C   3.01034810000000      0.44453563000000     -3.57087479000000
  H   3.36874524000000     -0.34087265000000     -4.23310542000000
  H   3.87716631000000      0.85956797000000     -3.05451179000000
  H   2.56651274000000      1.24453594000000     -4.16228993000000
