38
Coordinates from ORCA-job 10_6_orca
  Pd  0.29617541000000      0.12783305000000     -0.04341205000000
  O   1.88144173000000      1.27592287000000      0.72322647000000
  C   1.84226981000000      2.48372407000000      0.54745108000000
  O   0.63798888000000      3.06096656000000     -0.02008600000000
  C   3.03029351000000      3.35830491000000      0.78701973000000
  H   2.73620934000000      4.31063128000000      1.21001579000000
  H   3.49826552000000      3.57925142000000     -0.17912361000000
  H   3.76021535000000      2.87279467000000      1.40926384000000
  N   -1.23380939000000     -1.05404174000000     -0.89499774000000
  C   -0.77023220000000     -2.44980997000000     -1.06122260000000
  H   0.08046545000000     -2.48076534000000     -1.72273299000000
  H   -1.56989861000000     -3.05040179000000     -1.50193420000000
  H   -0.48742083000000     -2.86048708000000     -0.10093826000000
  C   -1.69621395000000     -0.56355574000000     -2.20602003000000
  H   -1.90148459000000      0.50084182000000     -2.15347932000000
  H   -2.60099087000000     -1.09282133000000     -2.50393864000000
  H   -0.94291381000000     -0.74851899000000     -2.95976851000000
  C   -1.92895134000000     -1.01059672000000      1.49789011000000
  C   -2.65646088000000     -1.66078451000000      2.49853248000000
  C   -2.26168271000000     -1.55004713000000      3.82708982000000
  C   -1.13447396000000     -0.82236617000000      4.14457664000000
  C   -0.40661258000000     -0.20291868000000      3.13796182000000
  C   -0.74720123000000     -0.26746725000000      1.73823166000000
  H   -0.81064712000000     -0.73755688000000      5.18163983000000
  H   0.47908265000000      0.29267507000000      3.46873342000000
  H   -3.53834372000000     -2.22913348000000      2.26915017000000
  H   -2.81769284000000     -2.03690710000000      4.60605736000000
  H   -0.24813315000000      3.97720966000000      0.38585312000000
  C   -2.38562072000000     -1.01943371000000      0.07631103000000
  H   -2.94064707000000     -0.10717320000000     -0.12327413000000
  H   -3.05784073000000     -1.85359367000000     -0.12990538000000
  O   1.27484009000000      0.74634725000000     -1.89075403000000
  C   2.01063339000000     -0.09208082000000     -2.53836253000000
  O   2.05717153000000     -1.29812967000000     -2.34796336000000
  C   2.94715639000000      0.53593794000000     -3.59541485000000
  H   3.30317815000000     -0.22413553000000     -4.28473504000000
  H   3.81476401000000      0.95244234000000     -3.08665326000000
  H   2.48721618000000      1.33773254000000     -4.16437353000000
