38
Coordinates from ORCA-job 10_7_orca
  Pd  0.29103219000000      0.13288440000000     -0.02810970000000
  O   1.87602838000000      1.28969091000000      0.71487010000000
  C   1.83322182000000      2.49572915000000      0.54077640000000
  O   0.60610999000000      3.08058631000000     -0.01636853000000
  C   3.02659700000000      3.36684978000000      0.78330782000000
  H   2.72843852000000      4.31647569000000      1.20745682000000
  H   3.49136387000000      3.58638684000000     -0.18335060000000
  H   3.75895829000000      2.88110387000000      1.40702125000000
  N   -1.23769519000000     -1.05074986000000     -0.89523205000000
  C   -0.77510014000000     -2.44619451000000     -1.07208360000000
  H   0.07369710000000     -2.47135870000000     -1.73732253000000
  H   -1.58002523000000     -3.04031172000000     -1.51164123000000
  H   -0.49113758000000     -2.86075593000000     -0.11346218000000
  C   -1.70117539000000     -0.55062723000000     -2.20370417000000
  H   -1.90317681000000      0.51393428000000     -2.14429325000000
  H   -2.60934963000000     -1.07643991000000     -2.49822300000000
  H   -0.94814757000000     -0.73143293000000     -2.95926500000000
  C   -1.92179108000000     -1.01116383000000      1.49955430000000
  C   -2.64607168000000     -1.67282905000000      2.49776102000000
  C   -2.25436220000000     -1.56281245000000      3.82655665000000
  C   -1.13295937000000     -0.82557733000000      4.14327776000000
  C   -0.41020716000000     -0.19518277000000      3.13613915000000
  C   -0.73706148000000     -0.26723868000000      1.73256647000000
  H   -0.81007253000000     -0.73997816000000      5.18183113000000
  H   0.46512369000000      0.31731417000000      3.46988347000000
  H   -3.52551170000000     -2.24759420000000      2.26647078000000
  H   -2.80640615000000     -2.05556446000000      4.60467376000000
  H   -0.22669403000000      3.93368031000000      0.39738943000000
  C   -2.38701951000000     -1.01972243000000      0.08038821000000
  H   -2.94169017000000     -0.10637602000000     -0.11701982000000
  H   -3.05698059000000     -1.85413950000000     -0.13125618000000
  O   1.27883913000000      0.74170098000000     -1.89210077000000
  C   2.01571225000000     -0.10246227000000     -2.53267357000000
  O   2.06324540000000     -1.30865116000000     -2.33987354000000
  C   2.95695241000000      0.52176869000000     -3.59161064000000
  H   3.31334241000000     -0.24223220000000     -4.27673138000000
  H   3.82443766000000      0.93804489000000     -3.08167066000000
  H   2.49950879000000      1.32328514000000     -4.16405053000000
