27
Coordinates from ORCA-job 10_0_orca
  Pd  -2.00924209000000     -1.49469709000000      0.55569143000000
  Cl  -2.95753172000000     -3.31820830000000     -0.55333341000000
  Cl  0.27940160000000     -5.24238413000000      0.13124770000000
  Cl  -3.79078410000000     -1.48802243000000      2.00689530000000
  N   -1.10489035000000      0.18912797000000      1.35006184000000
  C   -1.47903646000000      0.79830093000000      2.45867312000000
  C   -0.90431659000000      1.99519576000000      2.89398056000000
  C   0.09142190000000      2.56944717000000      2.14129303000000
  C   -0.11622695000000      0.72917177000000      0.60380612000000
  C   0.51024930000000      1.93615972000000      0.96417481000000
  H   0.54896612000000      3.50097635000000      2.45349506000000
  H   -2.24723949000000      0.30114447000000      3.03507379000000
  H   -1.24872257000000      2.45543045000000      3.80876624000000
  C   0.27135620000000      0.01703594000000     -0.56750114000000
  C   1.53607111000000      2.45220667000000      0.11101761000000
  C   1.89846575000000      1.78863737000000     -1.01349433000000
  C   1.28533661000000      0.54989486000000     -1.38778554000000
  H   2.01948009000000      3.38397980000000      0.37732722000000
  H   2.67682782000000      2.19551807000000     -1.64829471000000
  C   -0.37172298000000     -1.20570852000000     -0.85696438000000
  C   1.65702860000000     -0.16403932000000     -2.53561196000000
  C   0.00878703000000     -1.86493157000000     -2.01185373000000
  C   1.02869528000000     -1.35492974000000     -2.82531674000000
  H   2.43434013000000      0.21986730000000     -3.18516201000000
  H   1.32414065000000     -1.90747587000000     -3.70949350000000
  H   -0.83630041000000     -4.27539136000000     -0.28115501000000
  H   -0.50455560000000     -2.76630629000000     -2.31553851000000
