27
Coordinates from ORCA-job 10_1_orca
  Pd  -1.93031253000000     -1.48581543000000      0.46434865000000
  Cl  -2.93947363000000     -3.31615150000000     -0.54274538000000
  Cl  0.12971327000000     -5.11809252000000      0.14708608000000
  Cl  -3.83937149000000     -1.44078744000000      1.99788051000000
  N   -1.10759226000000      0.17520660000000      1.35977135000000
  C   -1.46809191000000      0.77975069000000      2.47560614000000
  C   -0.89412333000000      1.98274344000000      2.89286203000000
  C   0.08836635000000      2.55918471000000      2.14206820000000
  C   -0.11136062000000      0.71999849000000      0.59908479000000
  C   0.51119173000000      1.93650752000000      0.96522166000000
  H   0.54931829000000      3.49476814000000      2.45160043000000
  H   -2.23829850000000      0.28381729000000      3.04092265000000
  H   -1.24214633000000      2.44004231000000      3.81685983000000
  C   0.28220892000000     -0.00224526000000     -0.57509163000000
  C   1.52892910000000      2.44759312000000      0.10371503000000
  C   1.88933607000000      1.79386997000000     -1.01650409000000
  C   1.28922750000000      0.55657218000000     -1.39175670000000
  H   2.00849069000000      3.38734332000000      0.37558769000000
  H   2.66588667000000      2.20479408000000     -1.65584708000000
  C   -0.44268199000000     -1.21995395000000     -0.80427040000000
  C   1.65864136000000     -0.16172754000000     -2.53868025000000
  C   0.01852675000000     -1.86292989000000     -2.00497203000000
  C   1.04003419000000     -1.35382750000000     -2.83575182000000
  H   2.43277578000000      0.23307902000000     -3.19083869000000
  H   1.33711779000000     -1.90116140000000     -3.71831390000000
  H   -0.72963264000000     -4.35594673000000     -0.23506750000000
  H   -0.48932299000000     -2.77752339000000     -2.31927781000000
