27
Coordinates from ORCA-job 10_4_orca
  Pd  -1.94717452000000     -1.48091804000000      0.45147783000000
  Cl  -2.90557718000000     -3.31273336000000     -0.55220876000000
  Cl  0.13999245000000     -5.12912380000000      0.23234954000000
  Cl  -3.84634121000000     -1.38184613000000      1.95749846000000
  N   -1.08114031000000      0.17074561000000      1.35077511000000
  C   -1.45391861000000      0.75311598000000      2.47506350000000
  C   -0.88839557000000      1.96235576000000      2.90445177000000
  C   0.08997611000000      2.55126624000000      2.14081635000000
  C   -0.10512386000000      0.71542044000000      0.60658451000000
  C   0.50984800000000      1.92553289000000      0.96000903000000
  H   0.54790189000000      3.48652388000000      2.44815072000000
  H   -2.23577610000000      0.25978805000000      3.04849557000000
  H   -1.23212284000000      2.41911206000000      3.82186861000000
  C   0.26836692000000     -0.00599762000000     -0.55882100000000
  C   1.52155774000000      2.45321148000000      0.10303789000000
  C   1.87975189000000      1.79307561000000     -1.02354879000000
  C   1.27613343000000      0.53783877000000     -1.38601266000000
  H   1.99468983000000      3.38911546000000      0.37200955000000
  H   2.65140600000000      2.21398597000000     -1.66500367000000
  C   -0.40563069000000     -1.21388063000000     -0.85912072000000
  C   1.66080396000000     -0.15976714000000     -2.54584244000000
  C   0.00348601000000     -1.87066494000000     -1.98972410000000
  C   1.02841766000000     -1.35328065000000     -2.81246470000000
  H   2.43088916000000      0.24734663000000     -3.19773248000000
  H   1.34196290000000     -1.89449900000000     -3.71676808000000
  H   -0.78268371000000     -4.29817734000000     -0.24260098000000
  H   -0.46563025000000     -2.78016216000000     -2.31639064000000
