38
Coordinates from ORCA-job 9_0_orca
  C   -1.84320747000000      0.05347111000000      0.56888710000000
  C   -1.59665503000000      1.06560353000000      1.49728041000000
  C   -3.08157531000000      0.01939463000000     -0.07136881000000
  C   -4.09481943000000      0.91345978000000      0.22504357000000
  C   -3.83273342000000      1.95950069000000      1.08791389000000
  C   -2.60396511000000      2.01178527000000      1.71506977000000
  H   -1.91325508000000     -2.98886108000000     -2.19245673000000
  H   -3.33165461000000     -0.74247358000000     -0.79578110000000
  H   -2.51258843000000      2.72401032000000      2.53106293000000
  H   -5.06523832000000      0.81616151000000     -0.24767368000000
  H   -4.61325267000000      2.67277300000000      1.32329441000000
  C   -0.44348602000000      1.11031745000000      2.46463522000000
  C   0.82612003000000      0.29362022000000      2.28414984000000
  H   -0.83308986000000      0.88741873000000      3.46720336000000
  H   -0.11992523000000      2.15539186000000      2.53420415000000
  C   1.60600136000000      0.70688839000000      1.06913032000000
  H   0.58483403000000     -0.77047367000000      2.25393591000000
  H   1.45522565000000      0.40010333000000      3.17803053000000
  C   1.32618405000000      0.13501081000000     -0.17745982000000
  C   2.15782340000000      0.48910581000000     -1.23914138000000
  C   3.18856105000000      1.41376887000000     -1.10971984000000
  C   2.72827222000000      1.52049627000000      1.22264567000000
  C   3.40725217000000      2.01596110000000      0.11795166000000
  H   2.09488538000000     -0.02986055000000     -2.18825592000000
  H   3.82730108000000      1.65097476000000     -1.95307711000000
  H   3.04180543000000      1.83402317000000      2.21426102000000
  H   4.17229185000000      2.77468135000000      0.23029067000000
  Pd  0.01709848000000     -1.33870634000000     -0.33954681000000
  Br  -1.61112757000000     -3.56830277000000      0.21430287000000
  P   1.51373670000000     -2.99376101000000     -0.28883674000000
  H   1.68316808000000     -3.72980475000000      0.90075431000000
  C   0.02107004000000     -1.70353881000000     -3.71865895000000
  O   1.12348271000000     -1.69993878000000     -4.20669521000000
  O   -0.55703754000000     -2.79887525000000     -3.31739638000000
  O   -0.78040186000000     -0.62841503000000     -3.73269671000000
  H   2.88091253000000     -2.70007956000000     -0.45343161000000
  H   1.43873690000000     -4.08903427000000     -1.16077749000000
  H   -0.26077882000000      0.15819885000000     -3.90706532000000
