30
Generated by autodE on: 2023-07-17. 
Lu    0.13111  -0.50802   0.36757
C     0.61193   0.31185   2.74454
C     1.81608  -0.27162   2.29224
C     2.32957   0.53465   1.25633
C     1.43818   1.60555   1.05464
C     0.37678   1.46758   1.97669
H     1.56434   2.40515   0.33816
H    -0.46641   2.13543   2.08091
H    -0.02377  -0.06565   3.53094
H     2.28605  -1.15754   2.69658
H     3.24896   0.36501   0.71638
C     0.51614  -0.19466  -2.17519
C    -0.59535  -1.05764  -2.05819
C     1.24028  -2.16116  -1.27792
C     1.65142  -0.88215  -1.70424
H     0.50712   0.80019  -2.59746
C    -0.14981  -2.27091  -1.50672
H    -1.61099  -0.83070  -2.34714
H     2.66113  -0.50063  -1.69114
H     1.88617  -2.94079  -0.89899
H    -0.76610  -3.13206  -1.29644
C    -1.99763  -1.15350   1.05346
H    -2.37406  -0.74151   1.99465
H    -2.05364  -2.24652   1.15834
H    -2.75313  -0.91636   0.29263
C    -1.89263   2.28084  -1.20132
H    -2.01089   1.49015  -0.46162
H    -0.86844   2.64667  -1.19905
H    -2.56572   3.09649  -0.95251
H    -2.13670   1.89189  -2.18615
