38
Coordinates from ORCA-job 2_2_orca
  Pd  0.54341946000000      0.43210755000000     -0.43834785000000
  O   2.10262580000000      1.46979623000000      0.55480420000000
  C   1.70624501000000      2.65483910000000      0.30856643000000
  O   0.56717318000000      2.78353452000000     -0.16856244000000
  C   2.60849255000000      3.83194838000000      0.58624560000000
  H   2.05290462000000      4.64421691000000      1.05326966000000
  H   2.99380636000000      4.20606065000000     -0.36331170000000
  H   3.45271648000000      3.55815314000000      1.21250885000000
  N   -1.26633836000000     -0.55324370000000     -1.10341802000000
  C   -1.24480162000000     -1.39622494000000     -2.31828028000000
  H   -0.91278469000000     -0.85977535000000     -3.20234840000000
  H   -2.24721281000000     -1.76216031000000     -2.58263574000000
  H   -0.59782514000000     -2.24703452000000     -2.17060656000000
  C   -2.13958552000000      0.57342844000000     -1.46909070000000
  H   -2.23748377000000      1.27609072000000     -0.66163978000000
  H   -3.15806152000000      0.26981269000000     -1.74455125000000
  H   -1.72285496000000      1.12972758000000     -2.30078857000000
  C   -1.51298451000000     -0.94128338000000      1.35991152000000
  C   -0.73853349000000     -1.86327679000000      2.08749449000000
  C   -0.61741675000000     -1.80161309000000      3.45623098000000
  C   -1.19817739000000     -0.76749871000000      4.13724309000000
  C   -2.05778975000000      0.08464876000000      3.44552905000000
  C   -2.10399349000000      0.11284491000000      2.07098829000000
  H   -1.04497774000000     -0.67375132000000      5.20695359000000
  H   -2.68381024000000      0.69530531000000      4.05794324000000
  H   -0.29021400000000     -2.72168205000000      1.61718090000000
  H   -0.06529970000000     -2.54843931000000      4.00263265000000
  H   -2.69919840000000      2.51949627000000      1.89424492000000
  C   -1.92749978000000     -1.33382556000000     -0.01803982000000
  H   -3.02696437000000     -1.28395460000000     -0.05620634000000
  H   -1.76164439000000     -2.40037143000000     -0.16950421000000
  O   1.86907531000000     -0.81730512000000     -1.16092428000000
  C   2.28244489000000     -0.63506039000000     -2.38443264000000
  O   1.69359262000000      0.01910236000000     -3.19983876000000
  C   3.58949139000000     -1.28358621000000     -2.80656574000000
  H   3.49020135000000     -2.36258739000000     -2.79145947000000
  H   4.39191076000000     -1.00967731000000     -2.12953441000000
  H   3.91171952000000     -0.99916710000000     -3.81142305000000
