38
Coordinates from ORCA-job 2_3_orca
  Pd  0.60814954000000      0.43545122000000     -0.34757235000000
  O   2.09041863000000      1.35598822000000      0.53449808000000
  C   1.59865803000000      2.62212401000000      0.30249852000000
  O   0.58946568000000      2.84254244000000     -0.16903974000000
  C   2.64431816000000      3.77994851000000      0.58852127000000
  H   2.11222309000000      4.62011275000000      1.05093546000000
  H   3.04798483000000      4.15373358000000     -0.35509516000000
  H   3.48493817000000      3.50256608000000      1.23019003000000
  N   -1.38536253000000     -0.59490129000000     -1.17443745000000
  C   -1.21615291000000     -1.55221661000000     -2.24497934000000
  H   -0.83987584000000     -1.02277453000000     -3.09667879000000
  H   -2.22449603000000     -1.88526146000000     -2.47262502000000
  H   -0.56255906000000     -2.35534582000000     -1.99060145000000
  C   -2.13744509000000      0.56209809000000     -1.52269485000000
  H   -2.24228340000000      1.27119853000000     -0.72293758000000
  H   -3.12022365000000      0.16312398000000     -1.81800796000000
  H   -1.66364562000000      0.98798173000000     -2.39027300000000
  C   -1.57620299000000     -0.92743436000000      1.35281695000000
  C   -0.91815899000000     -1.96024753000000      2.16585310000000
  C   -0.67862432000000     -1.82602607000000      3.51725204000000
  C   -1.22937691000000     -0.79437148000000      4.15149622000000
  C   -1.90105972000000      0.25962003000000      3.46015836000000
  C   -1.98425804000000      0.15076348000000      2.18350394000000
  H   -1.03627320000000     -0.64475414000000      5.21626583000000
  H   -2.36802302000000      0.93879576000000      4.00545303000000
  H   -0.61752373000000     -2.84515512000000      1.67040080000000
  H   -0.30544280000000     -2.63701276000000      4.07814613000000
  H   -2.52609089000000      2.55738573000000      1.72374230000000
  C   -1.99689483000000     -1.32497820000000      0.01688281000000
  H   -3.07173907000000     -1.12290650000000     -0.03149868000000
  H   -1.91607810000000     -2.37772980000000     -0.11006691000000
  O   1.96555812000000     -0.75356408000000     -1.22820315000000
  C   2.27464338000000     -0.55935024000000     -2.49329301000000
  O   1.53614254000000     -0.08400843000000     -3.36261956000000
  C   3.64830938000000     -1.14755693000000     -2.82662635000000
  H   3.62449455000000     -2.21144082000000     -2.92446587000000
  H   4.39249335000000     -0.86074548000000     -2.14134997000000
  H   3.90448197000000     -0.72071479000000     -3.82388500000000
