38
Coordinates from ORCA-job 2_6_orca
  Pd  0.57967577000000      0.42773061000000     -0.38202930000000
  O   2.08724781000000      1.39883045000000      0.54177942000000
  C   1.66307687000000      2.63856164000000      0.31063816000000
  O   0.56706010000000      2.82047370000000     -0.17423575000000
  C   2.63103034000000      3.79297519000000      0.58996882000000
  H   2.09357365000000      4.62678027000000      1.05148146000000
  H   3.03015600000000      4.16882881000000     -0.35759067000000
  H   3.47336121000000      3.51991936000000      1.22362891000000
  N   -1.32876198000000     -0.58481398000000     -1.13123948000000
  C   -1.22988967000000     -1.49672805000000     -2.26850374000000
  H   -0.86235046000000     -0.97128967000000     -3.13434418000000
  H   -2.23282614000000     -1.85009285000000     -2.51110022000000
  H   -0.57397502000000     -2.32252712000000     -2.04720092000000
  C   -2.14120145000000      0.55863172000000     -1.50983307000000
  H   -2.24051669000000      1.27235096000000     -0.70526497000000
  H   -3.13552398000000      0.20148800000000     -1.79512985000000
  H   -1.68300645000000      1.03630666000000     -2.36245529000000
  C   -1.55243053000000     -0.93566788000000      1.36910559000000
  C   -0.86072891000000     -1.92336458000000      2.13515624000000
  C   -0.66876111000000     -1.82114956000000      3.49169467000000
  C   -1.21419879000000     -0.77575168000000      4.15452905000000
  C   -1.94395167000000      0.18909095000000      3.46057748000000
  C   -2.02414349000000      0.14349467000000      2.12094966000000
  H   -1.03896589000000     -0.65416042000000      5.21340236000000
  H   -2.47637975000000      0.87143811000000      4.03161249000000
  H   -0.51111954000000     -2.80920241000000      1.65305053000000
  H   -0.22495919000000     -2.61336258000000      4.05656718000000
  H   -2.58180468000000      2.54625508000000      1.78012956000000
  C   -1.97780220000000     -1.32005266000000      0.00088235000000
  H   -3.06037582000000     -1.17679949000000     -0.03831538000000
  H   -1.86694335000000     -2.38890928000000     -0.13045213000000
  O   1.93361113000000     -0.76682706000000     -1.20601884000000
  C   2.26320529000000     -0.57796787000000     -2.46993997000000
  O   1.59998610000000     -0.06575756000000     -3.29429028000000
  C   3.62578030000000     -1.18289220000000     -2.82988376000000
  H   3.58006504000000     -2.26114104000000     -2.88306520000000
  H   4.39612353000000     -0.90648504000000     -2.13426418000000
  H   3.91008976000000     -0.81185957000000     -3.81938561000000
