39
Coordinates from ORCA-job 3_0_orca
  Ir  0.45098034000000     -0.71580403000000      0.94686590000000
  C   -0.06722413000000     -2.66085610000000      1.78881331000000
  C   0.95988783000000     -2.06961802000000      2.59115813000000
  C   1.74678436000000     -2.30022049000000      0.43225852000000
  C   0.42798617000000     -2.83174327000000      0.47871536000000
  C   2.07342934000000     -1.87119402000000      1.75056637000000
  N   -0.94799772000000      0.04012795000000     -0.39812355000000
  C   -2.37400799000000      0.11848609000000      0.00083016000000
  C   -2.86805721000000      1.53927644000000      0.18594960000000
  H   -3.88600641000000      1.56648835000000      0.57252141000000
  H   -2.82874572000000      2.11353908000000     -0.74053543000000
  H   -2.28671425000000      2.09279562000000      0.91856505000000
  C   -3.32758181000000     -0.62550886000000     -0.91921283000000
  H   -2.43217315000000     -0.35381997000000      0.97973684000000
  H   -4.31670307000000     -0.69592057000000     -0.47173731000000
  H   -3.46004271000000     -0.13665453000000     -1.88607743000000
  H   -2.98620123000000     -1.64458059000000     -1.10496883000000
  C   -0.65976549000000      0.28116626000000     -1.62182415000000
  C   0.62300348000000      0.21494967000000     -2.25737089000000
  H   -1.46801209000000      0.56408372000000     -2.29379214000000
  C   1.87759486000000      0.13853500000000     -1.72388463000000
  C   2.92408491000000      0.11122952000000     -2.65998705000000
  S   0.75106877000000      0.03694993000000     -3.96791957000000
  C   2.44136878000000     -0.04971926000000     -3.92631259000000
  H   2.28144086000000      0.98388906000000     -0.77461315000000
  H   3.98235880000000      0.09643278000000     -2.44272515000000
  H   3.02364091000000     -0.19421767000000     -4.82351692000000
  H   -0.93834904000000     -3.16947304000000      2.17770836000000
  H   0.90403595000000     -1.95158031000000      3.66235575000000
  H   3.03615815000000     -1.48418202000000      2.04567655000000
  O   1.57670439000000      1.59091630000000      0.88347617000000
  O   -0.08527847000000      1.00186442000000      2.07152601000000
  C   0.69257636000000      1.91624969000000      1.72462389000000
  C   0.67801513000000      3.30167584000000      2.25279277000000
  H   0.79739653000000      4.02858557000000      1.45109690000000
  H   1.50570944000000      3.45782100000000      2.94654819000000
  H   -0.25179065000000      3.48077725000000      2.78505069000000
  H   2.47140674000000     -2.50125653000000     -0.33803185000000
  H   -0.04097393000000     -3.41947729000000     -0.29619571000000
