39
Coordinates from ORCA-job 3_3_orca
  Ir  0.44460595000000     -0.66783069000000      0.97644158000000
  C   -0.07030921000000     -2.66593284000000      1.76196474000000
  C   0.94322850000000     -2.08808563000000      2.58940671000000
  C   1.77505124000000     -2.33647328000000      0.46259710000000
  C   0.47740105000000     -2.84772205000000      0.45793237000000
  C   2.06965647000000     -1.86425205000000      1.79603121000000
  N   -0.95249873000000      0.02368414000000     -0.41561023000000
  C   -2.39508800000000      0.11664461000000      0.01641626000000
  C   -2.86316586000000      1.54768495000000      0.21554078000000
  H   -3.89068208000000      1.54173086000000      0.58379431000000
  H   -2.83414691000000      2.11481693000000     -0.71209502000000
  H   -2.27882363000000      2.06567491000000      0.95985051000000
  C   -3.33033397000000     -0.62875243000000     -0.93357076000000
  H   -2.43307874000000     -0.38432190000000      0.97855813000000
  H   -4.31929669000000     -0.69153128000000     -0.47388336000000
  H   -3.47104277000000     -0.11381754000000     -1.88395891000000
  H   -2.99637414000000     -1.64229435000000     -1.13098200000000
  C   -0.66513962000000      0.29300245000000     -1.63950231000000
  C   0.64427136000000      0.19941717000000     -2.24351705000000
  H   -1.48454080000000      0.56629919000000     -2.29598472000000
  C   1.93339944000000      0.27718145000000     -1.67604728000000
  C   2.91513709000000      0.06055687000000     -2.65362694000000
  S   0.73562812000000      0.03565595000000     -3.97840773000000
  C   2.43224828000000     -0.04619662000000     -3.93140173000000
  H   2.21870775000000      0.88474060000000     -0.81719922000000
  H   3.96883139000000      0.09075175000000     -2.43011652000000
  H   3.01947964000000     -0.18340522000000     -4.82516044000000
  H   -0.95849664000000     -3.16841938000000      2.12908387000000
  H   0.84380170000000     -1.93494950000000      3.65131566000000
  H   3.01789694000000     -1.46944943000000      2.10818729000000
  O   1.60593453000000      1.57610897000000      0.84333939000000
  O   -0.10177485000000      1.00036087000000      2.07710988000000
  C   0.73239085000000      1.90898316000000      1.68741212000000
  C   0.67879331000000      3.30896492000000      2.24243304000000
  H   0.79826601000000      4.03747579000000      1.43808434000000
  H   1.51914807000000      3.46549811000000      2.92476768000000
  H   -0.24378153000000      3.49442823000000      2.78104091000000
  H   2.51000878000000     -2.46667008000000     -0.31113098000000
  H   0.00357803000000     -3.40787820000000     -0.32862508000000
