39
Coordinates from ORCA-job 3_4_orca
  Ir  0.44692835000000     -0.66516937000000      0.99599900000000
  C   -0.07683641000000     -2.66650628000000      1.72839942000000
  C   0.91482140000000     -2.10066840000000      2.59450572000000
  C   1.82021325000000     -2.35231617000000      0.50338184000000
  C   0.51540160000000     -2.86106076000000      0.45126671000000
  C   2.06420572000000     -1.85875424000000      1.82570380000000
  N   -0.96534488000000      0.01803511000000     -0.42479544000000
  C   -2.39905392000000      0.10798620000000      0.01503899000000
  C   -2.86503929000000      1.54005838000000      0.24487403000000
  H   -3.89424047000000      1.51904512000000      0.59681442000000
  H   -2.83808251000000      2.11964545000000     -0.68109326000000
  H   -2.26712967000000      2.04158130000000      1.00758301000000
  C   -3.33991243000000     -0.62112242000000     -0.93821887000000
  H   -2.43494483000000     -0.41679544000000      0.97845608000000
  H   -4.32069758000000     -0.68884522000000     -0.47900543000000
  H   -3.48213649000000     -0.08970160000000     -1.88282949000000
  H   -3.00532062000000     -1.64166022000000     -1.15984814000000
  C   -0.65453754000000      0.29477138000000     -1.64224984000000
  C   0.67029515000000      0.21107168000000     -2.21951482000000
  H   -1.49944941000000      0.56878748000000     -2.30360846000000
  C   1.91356300000000      0.34049106000000     -1.73687260000000
  C   2.91674830000000      0.04331313000000     -2.65281058000000
  S   0.73267859000000      0.03067288000000     -3.96048133000000
  C   2.42338665000000     -0.05515325000000     -3.92167593000000
  H   2.17620933000000      0.82195337000000     -0.80465966000000
  H   3.96239067000000      0.08041857000000     -2.42083135000000
  H   3.01394175000000     -0.17333136000000     -4.82610670000000
  H   -0.97860094000000     -3.15919990000000      2.07192322000000
  H   0.77855449000000     -1.91681261000000      3.64424075000000
  H   3.00162126000000     -1.45185563000000      2.17836006000000
  O   1.61171934000000      1.55501220000000      0.82253737000000
  O   -0.07778712000000      1.03029725000000      2.06131356000000
  C   0.74312492000000      1.89737425000000      1.67008696000000
  C   0.69099769000000      3.30173783000000      2.21914495000000
  H   0.79803244000000      4.04545960000000      1.42540221000000
  H   1.53121367000000      3.47292621000000      2.90021460000000
  H   -0.23509915000000      3.50461000000000      2.77505794000000
  H   2.55278102000000     -2.42744088000000     -0.28416721000000
  H   0.05262318000000     -3.39433533000000     -0.37005381000000
