39
Coordinates from ORCA-job 3_7_orca
  Ir  0.46702611000000     -0.69354884000000      1.00462144000000
  C   -0.09217456000000     -2.67026252000000      1.65200203000000
  C   0.83374292000000     -2.10876155000000      2.59767512000000
  C   1.91751043000000     -2.36869264000000      0.58751679000000
  C   0.62767735000000     -2.88171727000000      0.42032131000000
  C   2.05048395000000     -1.84262230000000      1.94043257000000
  N   -0.96929916000000      0.00330971000000     -0.41834452000000
  C   -2.40249986000000      0.07275496000000      0.02189910000000
  C   -2.85357071000000      1.50758026000000      0.32497839000000
  H   -3.90257359000000      1.46152031000000      0.64395717000000
  H   -2.84060466000000      2.13064115000000     -0.57569455000000
  H   -2.25553134000000      1.96329289000000      1.11873037000000
  C   -3.35537991000000     -0.60802766000000     -0.96560946000000
  H   -2.43845147000000     -0.49489538000000      0.95321635000000
  H   -4.33650645000000     -0.68444263000000     -0.48930972000000
  H   -3.51238912000000     -0.02530911000000     -1.87525467000000
  H   -3.03731182000000     -1.61487496000000     -1.23668585000000
  C   -0.68409484000000      0.30769318000000     -1.63690071000000
  C   0.62954507000000      0.26706751000000     -2.25205965000000
  H   -1.49499636000000      0.56370044000000     -2.30921621000000
  C   1.91682977000000      0.42173645000000     -1.76688344000000
  C   2.92055590000000      0.06544969000000     -2.67688564000000
  S   0.71607754000000      0.00480043000000     -3.94185558000000
  C   2.41239303000000     -0.09633725000000     -3.92590190000000
  H   2.08573174000000      0.68238900000000     -0.75735159000000
  H   3.96615210000000      0.04542208000000     -2.39572261000000
  H   2.98869898000000     -0.15715200000000     -4.82711241000000
  H   -1.04197901000000     -3.12367386000000      1.90262966000000
  H   0.59169441000000     -1.87150306000000      3.63041872000000
  H   2.94203766000000     -1.40699438000000      2.37093885000000
  O   1.61715194000000      1.50626063000000      0.78986964000000
  O   -0.05493541000000      1.04737476000000      2.04374046000000
  C   0.79915263000000      1.90782828000000      1.60466925000000
  C   0.71841048000000      3.31014705000000      2.16607096000000
  H   0.79932492000000      4.05922117000000      1.38435784000000
  H   1.56521841000000      3.48758243000000      2.82737727000000
  H   -0.18472010000000      3.50970607000000      2.73633965000000
  H   2.67359492000000     -2.31680931000000     -0.19390126000000
  H   0.21036379000000     -3.34647419000000     -0.47202180000000
