27
Coordinates from ORCA-job 6_0_orca
  Pd  -2.14313051000000     -1.63159192000000      0.72414798000000
  Cl  -3.40762076000000     -3.32239085000000     -0.24997824000000
  Cl  -0.61434621000000     -4.74828672000000      1.34174698000000
  Cl  -4.06199374000000     -0.43585761000000      0.95264657000000
  N   -0.96276617000000     -0.05070046000000      1.41500565000000
  C   -1.28804079000000      0.50182692000000      2.57050707000000
  C   -0.79253844000000      1.73873091000000      2.98959789000000
  C   0.08991919000000      2.39153961000000      2.16568252000000
  C   -0.08186629000000      0.54920328000000      0.58903103000000
  C   0.46205168000000      1.80042012000000      0.95052087000000
  H   0.49770443000000      3.35040851000000      2.46453682000000
  H   -1.97405928000000     -0.05542255000000      3.19520659000000
  H   -1.09822976000000      2.15441413000000      3.93885644000000
  C   0.33156324000000     -0.13248625000000     -0.60474576000000
  C   1.37663879000000      2.44069627000000      0.05827548000000
  C   1.72263472000000      1.84602611000000     -1.10548739000000
  C   1.22910934000000      0.54931960000000     -1.45719084000000
  H   1.78109584000000      3.41068271000000      0.31996774000000
  H   2.40877125000000      2.35594438000000     -1.77247573000000
  C   -0.11276921000000     -1.43516191000000     -0.92182821000000
  C   1.66204848000000     -0.06505339000000     -2.64082100000000
  C   0.29918911000000     -1.97150047000000     -2.12588197000000
  C   1.22775193000000     -1.33062303000000     -2.95161034000000
  H   2.34386385000000      0.44699819000000     -3.30976587000000
  H   1.58067154000000     -1.78991086000000     -3.86720593000000
  H   -0.39937239000000     -3.63354311000000     -0.20739717000000
  H   -0.07628454000000     -2.93368162000000     -2.46134590000000
