27
Coordinates from ORCA-job 6_2_orca
  Pd  -2.06736655000000     -1.64257677000000      0.58270908000000
  Cl  -3.40373449000000     -3.28897087000000     -0.22571744000000
  Cl  -0.59483811000000     -4.57967625000000      1.16360111000000
  Cl  -4.05973863000000     -0.38450759000000      0.95319526000000
  N   -0.99094128000000     -0.07764124000000      1.41918136000000
  C   -1.29414874000000      0.48599017000000      2.57643047000000
  C   -0.78109322000000      1.71544272000000      2.99589672000000
  C   0.08647915000000      2.38147179000000      2.16430187000000
  C   -0.07215226000000      0.52768608000000      0.61285561000000
  C   0.46167725000000      1.80116336000000      0.94900742000000
  H   0.49612262000000      3.34018662000000      2.45365470000000
  H   -1.97683895000000     -0.05830247000000      3.19161092000000
  H   -1.09264335000000      2.13598487000000      3.93971887000000
  C   0.33657968000000     -0.15264627000000     -0.60206235000000
  C   1.36838752000000      2.44484323000000      0.05862209000000
  C   1.71687813000000      1.85007537000000     -1.11106317000000
  C   1.23252092000000      0.55692192000000     -1.46878252000000
  H   1.76810392000000      3.40794693000000      0.32030566000000
  H   2.39449404000000      2.35181658000000     -1.78055001000000
  C   -0.16772511000000     -1.49279862000000     -0.87766657000000
  C   1.67413437000000     -0.05970023000000     -2.64328737000000
  C   0.31195797000000     -1.98842976000000     -2.10965620000000
  C   1.21218680000000     -1.31939390000000     -2.96709580000000
  H   2.34222008000000      0.45743820000000     -3.30547291000000
  H   1.57944777000000     -1.79526029000000     -3.86960006000000
  H   -0.42468007000000     -3.66808380000000      0.03713377000000
  H   -0.05682856000000     -2.95217590000000     -2.45341077000000
