27
Coordinates from ORCA-job 6_4_orca
  Pd  -2.04507817000000     -1.59937803000000      0.51876277000000
  Cl  -3.42673991000000     -3.27908590000000     -0.21613154000000
  Cl  -0.59623859000000     -4.43009114000000      1.06800914000000
  Cl  -4.01657587000000     -0.33494872000000      0.90737816000000
  N   -0.96917314000000     -0.08507954000000      1.40615005000000
  C   -1.29180038000000      0.46171639000000      2.56986491000000
  C   -0.77144373000000      1.69079275000000      2.99918065000000
  C   0.08523536000000      2.36540943000000      2.16714421000000
  C   -0.06899030000000      0.50640609000000      0.60618198000000
  C   0.45323441000000      1.77476439000000      0.95203772000000
  H   0.49110518000000      3.32962664000000      2.44866528000000
  H   -1.98785767000000     -0.07823467000000      3.20099194000000
  H   -1.08308328000000      2.10992941000000      3.94598227000000
  C   0.32937035000000     -0.18286511000000     -0.59229833000000
  C   1.35390989000000      2.43679196000000      0.05088487000000
  C   1.69928406000000      1.84824704000000     -1.11016599000000
  C   1.21398004000000      0.53278846000000     -1.45315176000000
  H   1.75180752000000      3.41300446000000      0.32062502000000
  H   2.37834693000000      2.35700079000000     -1.79413878000000
  C   -0.15129549000000     -1.48579723000000     -0.87985954000000
  C   1.66113809000000     -0.06352780000000     -2.64965549000000
  C   0.31149452000000     -2.00375046000000     -2.08501337000000
  C   1.20682832000000     -1.32200974000000     -2.95330475000000
  H   2.34301585000000      0.47386873000000     -3.31375723000000
  H   1.57774891000000     -1.79482592000000     -3.87176988000000
  H   -0.43170113000000     -3.66981714000000      0.20940633000000
  H   -0.02162793000000     -2.97582565000000     -2.44670672000000
