27
Coordinates from ORCA-job 6_7_orca
  Pd  -1.99588170000000     -1.48480691000000      0.34335544000000
  Cl  -3.42701372000000     -3.25500627000000     -0.24108783000000
  Cl  -0.59366299000000     -4.43058209000000      1.15149587000000
  Cl  -3.93412845000000     -0.27318909000000      0.88274161000000
  N   -0.96125601000000     -0.10379722000000      1.39651098000000
  C   -1.29274971000000      0.42343593000000      2.56279305000000
  C   -0.76560862000000      1.63866178000000      2.99910311000000
  C   0.08359705000000      2.32487619000000      2.16933195000000
  C   -0.04958994000000      0.49994079000000      0.60883612000000
  C   0.46596515000000      1.76217751000000      0.95054701000000
  H   0.47766720000000      3.30339157000000      2.43357667000000
  H   -2.00646632000000     -0.10510097000000      3.18463003000000
  H   -1.06756956000000      2.05806333000000      3.95264520000000
  C   0.34842482000000     -0.18296358000000     -0.58915845000000
  C   1.33309137000000      2.42650986000000      0.04637056000000
  C   1.67566253000000      1.83207751000000     -1.11269420000000
  C   1.22208285000000      0.52181369000000     -1.45141060000000
  H   1.71526518000000      3.40469547000000      0.31778902000000
  H   2.33393351000000      2.34239202000000     -1.80378606000000
  C   -0.18976349000000     -1.48263350000000     -0.86352253000000
  C   1.63548917000000     -0.07253290000000     -2.64754982000000
  C   0.31235944000000     -2.03091697000000     -2.06401334000000
  C   1.19841800000000     -1.33799732000000     -2.92440569000000
  H   2.31588021000000      0.47643380000000     -3.29810929000000
  H   1.54536945000000     -1.79929985000000     -3.84631312000000
  H   -0.41053347000000     -3.45506015000000      0.26071477000000
  H   0.01870221000000     -3.01358713000000     -2.41164419000000
