27
Coordinates from ORCA-job 1_3_orca
  Pd  -2.37954557000000     -1.72024571000000      0.83376492000000
  Cl  -4.04725754000000     -3.04035407000000      0.10427190000000
  Cl  -1.30696017000000     -3.64804829000000      1.83444638000000
  Cl  -3.46285101000000      0.16793360000000     -0.07073596000000
  N   -0.90694808000000     -0.29376828000000      1.44526726000000
  C   -1.17378319000000      0.21134222000000      2.62900550000000
  C   -0.68170136000000      1.44385634000000      3.06836058000000
  C   0.07705226000000      2.18153824000000      2.20228099000000
  C   -0.05962372000000      0.35320728000000      0.61425060000000
  C   0.40741328000000      1.65156335000000      0.94661015000000
  H   0.43284573000000      3.16708208000000      2.47559156000000
  H   -1.82953438000000     -0.36829968000000      3.25888645000000
  H   -0.94137009000000      1.80400857000000      4.05153290000000
  C   0.38928283000000     -0.30712910000000     -0.59785285000000
  C   1.18057976000000      2.39610325000000      0.01126004000000
  C   1.49825883000000      1.85903339000000     -1.18940055000000
  C   1.13550126000000      0.50481281000000     -1.50871819000000
  H   1.49203154000000      3.39997663000000      0.26916562000000
  H   2.06793180000000      2.44217602000000     -1.90792691000000
  C   0.23876288000000     -1.66357648000000     -0.89140330000000
  C   1.60195701000000     -0.05041816000000     -2.72393315000000
  C   0.66049127000000     -2.17691992000000     -2.08063099000000
  C   1.34725199000000     -1.36117584000000     -3.00548384000000
  H   2.16223303000000      0.56390666000000     -3.41754515000000
  H   1.71531883000000     -1.79962753000000     -3.93044683000000
  H   -0.14304804000000     -2.50901966000000     -0.12225233000000
  H   0.52383786000000     -3.20784104000000     -2.30111665000000
