27
Coordinates from ORCA-job 1_7_orca
  Pd  -2.36205242000000     -1.75912220000000      0.83816867000000
  Cl  -4.00958786000000     -3.11970677000000      0.06359274000000
  Cl  -1.26969484000000     -3.58864241000000      1.73186300000000
  Cl  -3.46716881000000      0.08446920000000      0.05126429000000
  N   -0.90606820000000     -0.30789321000000      1.46720804000000
  C   -1.19581762000000      0.23836614000000      2.63222948000000
  C   -0.70156740000000      1.47072819000000      3.05580378000000
  C   0.07388826000000      2.19546972000000      2.19271990000000
  C   -0.05452968000000      0.33345432000000      0.63166736000000
  C   0.40221268000000      1.64045967000000      0.94664076000000
  H   0.44071154000000      3.18021653000000      2.45886507000000
  H   -1.86253635000000     -0.32683378000000      3.26688894000000
  H   -0.96422040000000      1.84645819000000      4.03746264000000
  C   0.41997209000000     -0.30078554000000     -0.57479180000000
  C   1.19479025000000      2.37880742000000      0.01321073000000
  C   1.50656199000000      1.83854545000000     -1.16694190000000
  C   1.14888734000000      0.49210937000000     -1.50578555000000
  H   1.52168384000000      3.38369587000000      0.27565913000000
  H   2.09282553000000      2.39708849000000     -1.88981589000000
  C   0.25212211000000     -1.68747063000000     -0.88473078000000
  C   1.58813124000000     -0.04871359000000     -2.70276789000000
  C   0.65180718000000     -2.16727322000000     -2.08433887000000
  C   1.31641975000000     -1.37399063000000     -3.02259528000000
  H   2.17633274000000      0.55439889000000     -3.37888904000000
  H   1.68343700000000     -1.79129826000000     -3.93877069000000
  H   -0.14544251000000     -2.34245066000000     -0.19015749000000
  H   0.46065765000000     -3.22302111000000     -2.33392902000000
