38
Coordinates from ORCA-job reaction-1-dhsgs_optts_Compound_1
  Pd  0.40620876593241      0.42189824656475     -0.25601542436836
  O   1.81592227108653      1.67725389170603      0.44844715665619
  C   1.36645476903042      2.62980116458438      1.14489403930143
  O   0.18787588320896      2.69797189813411      1.56823726663192
  C   2.31943917907686      3.75231431650019      1.45472754450794
  H   2.04777833304685      4.25210593698156      2.38080443960620
  H   2.26861655756499      4.48589900367096      0.64838835911926
  H   3.34436209109336      3.39296830045377      1.50744592482055
  N   -1.22778128477667     -0.65690421656340     -0.98685258249607
  C   -0.98007474390755     -2.10992680123839     -0.94800033098582
  H   -0.15330777143705     -2.35886179504657     -1.60548935831529
  H   -1.87851755568247     -2.65158752702057     -1.26432543791412
  H   -0.71387481915423     -2.42616530299934      0.05729682226339
  C   -1.60497764486254     -0.26912230259684     -2.35305296035271
  H   -1.74264792187824      0.80838124632274     -2.41550126995498
  H   -2.53892554298422     -0.76424197671701     -2.63875397710128
  H   -0.82674298305802     -0.55501731928523     -3.05307882396419
  C   -1.81912701492994     -0.47072216657506      1.34174964669593
  C   -2.38434065552486     -1.36330014936697      2.23589616861469
  C   -1.75289546215323     -1.62382271232726      3.44639829748764
  C   -0.54082706831713     -1.02094871702205      3.74324741912229
  C   0.01979568011534     -0.12567972999307      2.84459125139110
  C   -0.61545115893533      0.18871074869432      1.64054653090960
  H   -0.03667795138112     -1.24553225655890      4.67374595615525
  H   0.95798825631773      0.35529890015772      3.09258768193409
  H   -3.30287340356349     -1.87999350355703      1.98443690853871
  H   -2.19856804367501     -2.31852245474046      4.14632632390142
  H   -0.36270498203078      1.45980195299416      1.41622033291244
  C   -2.32816113423419     -0.30208836412661     -0.05351746522769
  H   -2.60893136128043      0.73747972689655     -0.24272907704796
  H   -3.20599440881913     -0.92555360585809     -0.26146837161948
  O   1.31331259327369      0.49200742826542     -2.02850468889652
  C   2.10362113673325     -0.50303815785125     -2.27733755904513
  O   2.19518710015389     -1.51022419790750     -1.59837916996752
  C   2.94752668662951     -0.30019497531156     -3.52067575091814
  H   3.72424185310105      0.43722996639094     -3.31276299862460
  H   2.35524935651074      0.08859427154327     -4.34848075292721
  H   3.42569239971006     -1.22999876719769     -3.81915207084296
