38
Coordinates from ORCA-job reaction-1-dhsgs_optts_Compound_2_IRC_F
  Pd  0.41533879460544      0.45876576803203     -0.25937432223657
  O   1.81260613727568      1.69023786385817      0.45012493082715
  C   1.36505413704204      2.69194910816917      1.12217039403133
  O   0.19827939347548      2.84226960685603      1.47998712876860
  C   2.37374549839591      3.76559377154316      1.44418390600744
  H   2.10071598593057      4.25976543030963      2.37411198823452
  H   2.32939108537393      4.51194223542254      0.64941078784296
  H   3.39175546141344      3.39028248785607      1.49945453374865
  N   -1.22393371559850     -0.65454978402582     -0.98423686773190
  C   -0.97560442619483     -2.10722561501583     -0.94700699951615
  H   -0.15094316532654     -2.35662667625976     -1.60655533658686
  H   -1.87458542450636     -2.64940679999129     -1.26123796089488
  H   -0.70690733342624     -2.42499014182702      0.05711769028184
  C   -1.60493640627696     -0.26706894078708     -2.35011394791000
  H   -1.74276718211841      0.81039814175804     -2.41409667501110
  H   -2.53814311173582     -0.76288819671416     -2.63700140348908
  H   -0.82702505710687     -0.55336254741585     -3.05080378290315
  C   -1.84131477295785     -0.50269002167689      1.35137236832477
  C   -2.38914628384525     -1.41029422808871      2.23848273739975
  C   -1.75473013495418     -1.65758871984054      3.45160496880783
  C   -0.54560664345150     -1.04994918810310      3.75716369472390
  C   -0.00685357804139     -0.12121170639421      2.88174910600134
  C   -0.67545496845014      0.18145417709221      1.70172271539042
  H   -0.04046272664862     -1.27825247270045      4.68560061170182
  H   0.91528000743681      0.39208683694237      3.12029047416825
  H   -3.30581241669362     -1.92914705683420      1.98896258685881
  H   -2.20200240785130     -2.34609011251680      4.15554244177819
  H   -0.48457765312873      1.23574783199062      1.31089387011642
  C   -2.32802184756266     -0.30567895798763     -0.04996646231339
  H   -2.60046040112979      0.73912993587234     -0.22597507662969
  H   -3.20884077412624     -0.91880910986234     -0.27233902092921
  O   1.32457787670444      0.50918402193221     -2.01356742942943
  C   2.10553259118179     -0.49646686951608     -2.26579661601831
  O   2.18822025959284     -1.50432667464843     -1.58948510856562
  C   2.94464952727540     -0.29547324579276     -3.51280003914417
  H   3.72265877596698      0.44119931555988     -3.30791647997063
  H   2.35166615070242      0.09227629159420     -4.34062247154605
  H   3.42067072653349     -1.22658889695231     -3.81102790846943
