30
Coordinates from ORCA-job reaction-7-cineb10_optts_Compound_2_IRC_B
  Lu  0.09703454108982     -0.20323856758885      0.12087934822182
  C   0.23570140447819      1.06995523578229      2.35508268320482
  C   1.02425915076123     -0.08883847493388      2.47979623731553
  C   2.13434175282857      0.04285686446534      1.61784732411846
  C   2.03382293273789      1.29084744175711      0.96750919448144
  C   0.86055331241590      1.92339830231638      1.42086598245666
  H   2.74218324240494      1.70035416822427      0.26254293664802
  H   0.52399549903975      2.91139248478090      1.13838012919419
  H   -0.68767957107431      1.26651699553761      2.87930702982834
  H   0.79659020294431     -0.94031552809847      3.10379421797562
  H   2.93080538585757     -0.67584406036318      1.48775003770222
  C   0.64823855612739      0.07390208586390     -2.42775572727821
  C   -0.49733115294876     -0.75078429246203     -2.36049922387134
  C   1.23883576602968     -1.87866779105301     -1.41093634773704
  C   1.72163411555350     -0.62698021884452     -1.84891974309590
  H   0.70587484259922      1.04548541166446     -2.89857350691558
  C   -0.13193913592675     -1.95758502724406     -1.74086079860226
  H   -1.47638096452933     -0.51073276234817     -2.75039119564560
  H   2.73875809400265     -0.27367345332770     -1.76919916620200
  H   1.82366393898598     -2.65427899445342     -0.93652404545923
  H   -0.79154525940170     -2.78469784300614     -1.52952432329367
  C   -1.70568837868549     -1.39409432712257      1.00877627865255
  H   -2.23352464903433     -0.88137674597345      1.82223644810529
  H   -1.36514063398950     -2.34510178118527      1.43906973967001
  H   -2.46942715186173     -1.66627031500322      0.27032481115056
  C   -2.18217837446493      1.66806492481599     -0.43949731932268
  H   -2.18246985727378      0.68261504831823      0.03359921082792
  H   -1.22513295662979      1.96924728363766     -0.87178562775663
  H   -2.46955261725380      2.39369201286940      0.31453754081061
  H   -2.91416921113899      1.62946205827892     -1.23957243101713
