30
Coordinates from ORCA-job reaction-7-cineb10_optts_Compound_1
  Lu  0.06980102629657      0.00847103876141     -0.00784103797841
  C   0.22215189002711      1.09248957901428      2.31990974592288
  C   0.97549536550840     -0.09677072267262      2.39094298127002
  C   2.09493730966079      0.04244867513530      1.54643976972003
  C   2.03492104000401      1.32259735673803      0.95382284847413
  C   0.87918103575452      1.97080258359378      1.43621084351062
  H   2.76310257017520      1.74252597815611      0.27497898380722
  H   0.55634781733870      2.96920473431223      1.17835041981555
  H   -0.69975174241526      1.29208327682839      2.84521129728713
  H   0.73607652709063     -0.96156912740468      2.99316165720751
  H   2.87315690252015     -0.69130624205227      1.39385119891013
  C   0.65126948965704      0.06130092142208     -2.51403450933126
  C   -0.50311410235657     -0.74360832383325     -2.41133181963569
  C   1.21129228140193     -1.83125840235677     -1.37174979291967
  C   1.71140417276996     -0.61233001976102     -1.87669590124057
  H   0.71792679534308      1.01420499467717     -3.01988451385833
  C   -0.15634022963127     -1.91336705757608     -1.71082951927514
  H   -1.47756874190448     -0.51108984188348     -2.81404218397372
  H   2.73171172316774     -0.26605977359074     -1.80337168061973
  H   1.78486283195863     -2.58795965039409     -0.85561014383451
  H   -0.81964160902576     -2.73404465527313     -1.48120725154179
  C   -1.93778857886471     -1.13246594736095      0.90165058464493
  H   -2.44655691219772     -0.82888965515188      1.81791313394753
  H   -1.22159129800804     -1.91108559410666      1.20941394520617
  H   -2.66401177637477     -1.63365975669662      0.26059291810573
  C   -1.91876270321556      1.43795717334133     -0.36281935516134
  H   -1.90193857681511      0.14655651531037      0.25880339793628
  H   -1.20905466622023      2.08383805668788     -0.90584241557506
  H   -2.31492825171299      2.04582087462059      0.45151039969938
  H   -2.72792958993200      1.24713301151529     -1.06907400052004
