38
Coordinates from ORCA-job 9_0_orca
  Pd  0.37642852000000      0.13323957000000     -0.18797711000000
  O   1.94616483000000      1.33977060000000      0.65535999000000
  C   1.83053057000000      2.53831627000000      0.43092309000000
  O   0.75354228000000      3.01500628000000     -0.12315528000000
  C   2.94415868000000      3.49736013000000      0.69050889000000
  H   2.61751996000000      4.43346096000000      1.14357774000000
  H   3.42329367000000      3.75659566000000     -0.25640716000000
  H   3.70341348000000      3.04475782000000      1.32193669000000
  N   -1.25491188000000     -0.93976513000000     -0.89785193000000
  C   -0.89465153000000     -2.32585101000000     -1.24396147000000
  H   -0.10345586000000     -2.37037051000000     -1.98635318000000
  H   -1.71361411000000     -2.88587152000000     -1.72575568000000
  H   -0.53796559000000     -2.85725712000000     -0.37240541000000
  C   -1.77961998000000     -0.32851322000000     -2.12875557000000
  H   -1.93138180000000      0.73592659000000     -1.97509754000000
  H   -2.72962252000000     -0.77776899000000     -2.44478392000000
  H   -1.10764151000000     -0.46885493000000     -2.96868980000000
  C   -1.83191299000000     -1.13266726000000      1.49593614000000
  C   -2.44704925000000     -1.88851105000000      2.48757528000000
  C   -2.07816135000000     -1.77647960000000      3.81644411000000
  C   -1.08274914000000     -0.89487789000000      4.17767452000000
  C   -0.50617167000000     -0.10494031000000      3.19444343000000
  C   -0.94242181000000     -0.14457395000000      1.87902906000000
  H   -0.80433939000000     -0.78080486000000      5.21823745000000
  H   0.14858120000000      0.65497900000000      3.60223144000000
  H   -3.28141371000000     -2.54080041000000      2.25496574000000
  H   -2.57881625000000     -2.35619192000000      4.58076201000000
  H   -0.82234483000000      3.95480662000000      0.75667569000000
  C   -2.35277947000000     -1.01404000000000      0.09751699000000
  H   -2.96944907000000     -0.11273557000000      0.01925996000000
  H   -3.06034588000000     -1.83666707000000     -0.07388817000000
  O   1.40454773000000      0.63116091000000     -1.90700790000000
  C   2.12484961000000     -0.23617536000000     -2.51089204000000
  O   2.15080443000000     -1.40166851000000     -2.14832456000000
  C   3.13157862000000      0.26271986000000     -3.52593348000000
  H   3.50333014000000     -0.54319086000000     -4.15851838000000
  H   3.99654546000000      0.67678189000000     -3.00164883000000
  H   2.75552310000000      1.04369490000000     -4.18563812000000
