38
Coordinates from ORCA-job 9_12_orca
  Pd  0.22621870000000      0.29108419000000      0.07831831000000
  O   1.79143760000000      1.45150831000000      0.59568281000000
  C   1.60183542000000      2.62930114000000      0.45716636000000
  O   0.29586876000000      3.14944209000000      0.10664494000000
  C   2.83838299000000      3.54661823000000      0.65133189000000
  H   2.47826593000000      4.46888178000000      1.09077013000000
  H   3.32357340000000      3.83206575000000     -0.29146493000000
  H   3.63931389000000      3.14021109000000      1.30523701000000
  N   -1.34498435000000     -0.89111737000000     -0.94553579000000
  C   -0.98148461000000     -2.21924341000000     -1.53579305000000
  H   -0.20522843000000     -2.07597725000000     -2.30119933000000
  H   -1.94211300000000     -2.62957150000000     -1.90924911000000
  H   -0.62289389000000     -2.87109934000000     -0.72982480000000
  C   -1.90233765000000     -0.05528690000000     -2.03980381000000
  H   -2.02543023000000      0.98328996000000     -1.71153274000000
  H   -2.88692993000000     -0.46555738000000     -2.31626756000000
  H   -1.19849776000000     -0.05440925000000     -2.88171116000000
  C   -1.78046636000000     -1.05687953000000      1.50747481000000
  C   -2.16367924000000     -2.04803525000000      2.42218463000000
  C   -1.73965213000000     -1.98386969000000      3.74478003000000
  C   -1.10098376000000     -0.79689212000000      4.13520512000000
  C   -0.72394973000000      0.19454500000000      3.19235186000000
  C   -0.75314308000000     -0.11514589000000      1.80466796000000
  H   -0.77415556000000     -0.72338735000000      5.17547129000000
  H   -0.29947070000000      1.12029423000000      3.60891277000000
  H   -2.76405493000000     -2.91687065000000      2.10747952000000
  H   -2.08561157000000     -2.71826493000000      4.48091276000000
  H   -0.50792379000000      3.41000668000000      0.68974237000000
  C   -2.35766994000000     -1.07915656000000      0.12065379000000
  H   -3.01739053000000     -0.21147681000000      0.08794227000000
  H   -2.93824773000000     -1.98472803000000     -0.13233051000000
  O   1.43297149000000      0.49495645000000     -1.90930458000000
  C   2.22093133000000     -0.44383651000000     -2.33837154000000
  O   2.15842038000000     -1.64198520000000     -2.10915438000000
  C   3.30214720000000     -0.00432492000000     -3.37050375000000
  H   3.66881274000000     -0.88081516000000     -3.92085887000000
  H   4.16020820000000      0.40994621000000     -2.83709882000000
  H   2.97940408000000      0.76122300000000     -4.08714878000000
