38
Coordinates from ORCA-job 9_16_orca
  Pd  0.14378372000000      0.19290176000000     -0.01248990000000
  O   1.56003569000000      1.53747589000000      0.66010178000000
  C   1.53114248000000      2.77324045000000      0.53656289000000
  O   0.43639240000000      3.35577940000000      0.08036809000000
  C   2.69068550000000      3.62750720000000      0.63819236000000
  H   2.43308970000000      4.58056645000000      1.08755773000000
  H   3.19474579000000      3.83132881000000     -0.31923617000000
  H   3.45015614000000      3.15600645000000      1.22157637000000
  N   -1.34990176000000     -0.81664484000000     -0.93285072000000
  C   -1.02656423000000     -2.09847128000000     -1.59551466000000
  H   -0.29426894000000     -1.98688850000000     -2.37760037000000
  H   -1.95066707000000     -2.50957654000000     -2.02964561000000
  H   -0.65209184000000     -2.85635207000000     -0.90966001000000
  C   -1.93319931000000      0.06637700000000     -1.96811238000000
  H   -2.07379858000000      1.07549786000000     -1.60470309000000
  H   -2.91221653000000     -0.30629966000000     -2.28890593000000
  H   -1.27465429000000      0.12586420000000     -2.82935199000000
  C   -1.65278018000000     -1.20969058000000      1.45986524000000
  C   -2.04155842000000     -2.15200387000000      2.39218143000000
  C   -1.65004155000000     -2.00016363000000      3.71715242000000
  C   -1.06535951000000     -0.77553988000000      4.07504631000000
  C   -0.68580675000000      0.23046239000000      3.14707494000000
  C   -0.86169654000000     -0.07805287000000      1.76904358000000
  H   -0.79924994000000     -0.64337078000000      5.10971266000000
  H   -0.43451633000000      1.24938722000000      3.52007777000000
  H   -2.57367159000000     -3.02937271000000      2.05473253000000
  H   -1.82536412000000     -2.84945342000000      4.38948806000000
  H   -0.21421768000000      2.98488244000000      0.78538557000000
  C   -2.34092528000000     -1.09795706000000      0.13281767000000
  H   -3.06516332000000     -0.26495809000000      0.11874827000000
  H   -2.91834192000000     -1.99780907000000     -0.11263570000000
  O   1.41773746000000      0.37305531000000     -1.82461006000000
  C   2.21826635000000     -0.53537417000000     -2.28085891000000
  O   2.21716604000000     -1.69700884000000     -1.90485382000000
  C   3.33802316000000     -0.11995348000000     -3.28775492000000
  H   3.69835402000000     -1.00364852000000     -3.81490148000000
  H   4.22776269000000      0.29482204000000     -2.78669682000000
  H   3.02863781000000      0.61409700000000     -4.01875665000000
