38
Coordinates from ORCA-job 9_18_orca
  Pd  0.16455493000000      0.19591978000000     -0.08175411000000
  O   1.44478887000000      1.60374632000000      0.78595730000000
  C   1.55133456000000      2.76560693000000      0.45886475000000
  O   0.39233110000000      3.51221575000000      0.20447236000000
  C   2.67892186000000      3.71456947000000      0.64489999000000
  H   2.40525105000000      4.67565962000000      1.08826396000000
  H   3.07072697000000      3.82312634000000     -0.34396941000000
  H   3.35303988000000      3.14490570000000      1.19957041000000
  N   -1.38934471000000     -0.81160856000000     -0.96162260000000
  C   -1.05086487000000     -2.05423795000000     -1.64010241000000
  H   -0.33671157000000     -1.92010076000000     -2.41699679000000
  H   -1.94336602000000     -2.42330406000000     -2.10594803000000
  H   -0.66172472000000     -2.82666719000000     -0.99445674000000
  C   -1.95869018000000      0.14270561000000     -1.93339355000000
  H   -2.10515425000000      1.13930755000000     -1.52612984000000
  H   -2.91642083000000     -0.21935753000000     -2.27512878000000
  H   -1.31274590000000      0.22772625000000     -2.79706361000000
  C   -1.63217223000000     -1.24860797000000      1.43409148000000
  C   -1.94533410000000     -2.22165036000000      2.36350927000000
  C   -1.59335697000000     -2.00411749000000      3.68435303000000
  C   -1.02068703000000     -0.77200112000000      4.03291713000000
  C   -0.69660845000000      0.21829594000000      3.08395529000000
  C   -0.91033361000000     -0.07578844000000      1.71298228000000
  H   -0.82337450000000     -0.57539575000000      5.08256172000000
  H   -0.47872869000000      1.24213174000000      3.42550642000000
  H   -2.48256464000000     -3.10246099000000      2.03430831000000
  H   -1.65965750000000     -2.87081899000000      4.33593373000000
  H   -0.03500335000000      2.74820505000000      0.72889911000000
  C   -2.33928052000000     -1.12265803000000      0.14309599000000
  H   -3.07615029000000     -0.31400347000000      0.16600928000000
  H   -2.91067966000000     -2.00040682000000     -0.10502696000000
  O   1.38960708000000      0.31651915000000     -1.78734682000000
  C   2.23818508000000     -0.60193027000000     -2.17067972000000
  O   2.26258314000000     -1.73852895000000     -1.76651584000000
  C   3.33493797000000     -0.18773073000000     -3.22791699000000
  H   3.69625935000000     -1.07580850000000     -3.75015575000000
  H   4.23515530000000      0.22161529000000     -2.74800549000000
  H   3.03729338000000      0.53718444000000     -3.98210858000000
