38
Coordinates from ORCA-job 9_25_orca
  Pd  0.20546977000000      0.24400367000000     -0.02383128000000
  O   1.63338167000000      1.60460637000000      0.76405903000000
  C   1.53091318000000      2.80395882000000      0.59295540000000
  O   0.37642695000000      3.43318516000000      0.33467651000000
  C   2.77078714000000      3.68510253000000      0.63321116000000
  H   2.48765720000000      4.62787082000000      1.05810590000000
  H   3.14155718000000      3.86220542000000     -0.37848008000000
  H   3.50121594000000      3.17614189000000      1.23572566000000
  N   -1.37985265000000     -0.82607878000000     -0.96823785000000
  C   -1.01329688000000     -2.09425359000000     -1.61994952000000
  H   -0.24481112000000     -1.93805537000000     -2.36635993000000
  H   -1.91421192000000     -2.50647888000000     -2.08982508000000
  H   -0.64415007000000     -2.78777855000000     -0.87431168000000
  C   -1.94947074000000      0.07584965000000     -1.97792204000000
  H   -2.09280765000000      1.06608990000000     -1.55378401000000
  H   -2.91588992000000     -0.29772314000000     -2.32666428000000
  H   -1.26158319000000      0.15079523000000     -2.81313214000000
  C   -1.71078408000000     -1.22392651000000      1.40282893000000
  C   -2.03117152000000     -2.16241630000000      2.36233354000000
  C   -1.59536962000000     -1.99580839000000      3.66823057000000
  C   -1.03128931000000     -0.78296454000000      4.01062834000000
  C   -0.65593004000000      0.13021081000000      3.02243018000000
  C   -0.85084223000000     -0.15171604000000      1.67203660000000
  H   -0.82740338000000     -0.56326940000000      5.05277709000000
  H   -0.22520277000000      1.06270822000000      3.35664051000000
  H   -2.60885958000000     -3.03152351000000      2.09478877000000
  H   -1.78036096000000     -2.74015415000000      4.42748776000000
  H   -0.34955903000000      2.82918647000000      0.53872417000000
  C   -2.38085575000000     -1.13149677000000      0.08790885000000
  H   -3.06458367000000     -0.28257304000000      0.17110002000000
  H   -2.96954465000000     -2.02134933000000     -0.15837765000000
  O   1.38988181000000      0.36543624000000     -1.80116275000000
  C   2.23384023000000     -0.55203654000000     -2.15313961000000
  O   2.29687042000000     -1.66819072000000     -1.68308673000000
  C   3.25698010000000     -0.14459276000000     -3.22963319000000
  H   3.59457385000000     -1.02021331000000     -3.78031512000000
  H   4.13961238000000      0.28150142000000     -2.74837172000000
  H   2.89356801000000      0.59459193000000     -3.93858733000000
