38
Coordinates from ORCA-job 9_26_orca
  Pd  0.21842245000000      0.23888574000000     -0.01441837000000
  O   1.67932545000000      1.57638675000000      0.75314260000000
  C   1.52820508000000      2.77817548000000      0.59516474000000
  O   0.37320786000000      3.37158905000000      0.38409788000000
  C   2.76696861000000      3.66492099000000      0.63382833000000
  H   2.53134437000000      4.63396697000000      1.06150165000000
  H   3.17161730000000      3.85855887000000     -0.36482637000000
  H   3.56213266000000      3.20211227000000      1.23239888000000
  N   -1.38594445000000     -0.83646642000000     -0.97244315000000
  C   -0.99977560000000     -2.09987382000000     -1.60607531000000
  H   -0.22179190000000     -1.95221687000000     -2.34316500000000
  H   -1.88334359000000     -2.53500116000000     -2.07008092000000
  H   -0.63706203000000     -2.77594435000000     -0.84482094000000
  C   -1.94407446000000      0.04924641000000     -1.99312987000000
  H   -2.09385234000000      1.03687110000000     -1.57154271000000
  H   -2.90619617000000     -0.32830840000000     -2.34273274000000
  H   -1.24540231000000      0.12664320000000     -2.82129303000000
  C   -1.72120276000000     -1.22673900000000      1.40034857000000
  C   -2.05757193000000     -2.14658785000000      2.37016712000000
  C   -1.62566323000000     -1.97843689000000      3.67838897000000
  C   -1.02648638000000     -0.78199813000000      4.00367532000000
  C   -0.61764335000000      0.11474948000000      3.01367577000000
  C   -0.84210696000000     -0.16062729000000      1.66833275000000
  H   -0.82739165000000     -0.56487071000000      5.04143069000000
  H   -0.12350809000000      1.02742186000000      3.34818841000000
  H   -2.65206676000000     -3.00166541000000      2.10803297000000
  H   -1.83005820000000     -2.70733386000000      4.45606480000000
  H   -0.45310316000000      2.88712493000000      0.48132827000000
  C   -2.39024120000000     -1.13049105000000      0.07703830000000
  H   -3.07284458000000     -0.27479433000000      0.14441136000000
  H   -2.97651949000000     -2.01668122000000     -0.18469940000000
  O   1.38649998000000      0.39265119000000     -1.78930104000000
  C   2.21953094000000     -0.51996682000000     -2.15775838000000
  O   2.28785333000000     -1.64231331000000     -1.69082732000000
  C   3.23289055000000     -0.12819380000000     -3.23046371000000
  H   3.56865383000000     -1.00488900000000     -3.79111178000000
  H   4.10814359000000      0.30567221000000     -2.73963975000000
  H   2.84717885000000      0.61875489000000     -3.91974606000000
