38
Coordinates from ORCA-job 9_2_orca
  Pd  0.37029844000000      0.15027946000000     -0.15874550000000
  O   1.94147947000000      1.32265221000000      0.65262048000000
  C   1.81061947000000      2.56101030000000      0.42664447000000
  O   0.73381424000000      3.01775699000000     -0.11578408000000
  C   2.95025583000000      3.49886755000000      0.69241285000000
  H   2.61088548000000      4.43403835000000      1.14114639000000
  H   3.41947896000000      3.75965747000000     -0.25807005000000
  H   3.70250755000000      3.04931549000000      1.32172269000000
  N   -1.26312982000000     -0.94866616000000     -0.91091673000000
  C   -0.89229411000000     -2.32834787000000     -1.26085430000000
  H   -0.10608445000000     -2.35736104000000     -1.99531950000000
  H   -1.72307832000000     -2.87304618000000     -1.72836587000000
  H   -0.54192261000000     -2.85834630000000     -0.38275230000000
  C   -1.78667107000000     -0.31477937000000     -2.12966123000000
  H   -1.93454637000000      0.74494764000000     -1.96678417000000
  H   -2.73426570000000     -0.76745336000000     -2.43679834000000
  H   -1.10855516000000     -0.45392310000000     -2.96468493000000
  C   -1.83856490000000     -1.11824642000000      1.49776359000000
  C   -2.44063221000000     -1.90159813000000      2.48365513000000
  C   -2.06693647000000     -1.78640564000000      3.81661348000000
  C   -1.08394012000000     -0.89507268000000      4.17519259000000
  C   -0.51604638000000     -0.08187499000000      3.20337705000000
  C   -0.91586374000000     -0.14918402000000      1.86186341000000
  H   -0.80158888000000     -0.77974895000000      5.21732970000000
  H   0.13262034000000      0.67010058000000      3.59813076000000
  H   -3.26298898000000     -2.55498725000000      2.25002360000000
  H   -2.56312914000000     -2.36872392000000      4.57650752000000
  H   -0.80873098000000      3.93443189000000      0.75432149000000
  C   -2.35773464000000     -1.01764855000000      0.10725996000000
  H   -2.96889458000000     -0.11586924000000      0.02323162000000
  H   -3.05368234000000     -1.84153092000000     -0.08077876000000
  O   1.39959283000000      0.63682576000000     -1.91514648000000
  C   2.13539481000000     -0.25209648000000     -2.48881345000000
  O   2.15278997000000     -1.41521980000000     -2.15028135000000
  C   3.13752162000000      0.25621498000000     -3.52858472000000
  H   3.50814238000000     -0.55567094000000     -4.14970769000000
  H   4.00096839000000      0.66675029000000     -2.99559433000000
  H   2.76317963000000      1.03429413000000     -4.18240154000000
