38
Coordinates from ORCA-job 9_4_orca
  Pd  0.31843346000000      0.25521047000000      0.01420612000000
  O   1.88022195000000      1.33709250000000      0.61515838000000
  C   1.71663101000000      2.59732602000000      0.42664012000000
  O   0.57303932000000      3.04919935000000     -0.05207841000000
  C   2.93247909000000      3.51620014000000      0.68354160000000
  H   2.56285537000000      4.44324105000000      1.12221085000000
  H   3.38990718000000      3.78718193000000     -0.27262578000000
  H   3.69885390000000      3.07871453000000      1.32685286000000
  N   -1.31280601000000     -0.96462302000000     -0.95204021000000
  C   -0.90900555000000     -2.31971396000000     -1.36769792000000
  H   -0.12088359000000     -2.25366787000000     -2.09872161000000
  H   -1.80484512000000     -2.77987408000000     -1.77387477000000
  H   -0.57397518000000     -2.86474824000000     -0.48959614000000
  C   -1.83339039000000     -0.22117106000000     -2.11824116000000
  H   -1.96426844000000      0.83262907000000     -1.88618834000000
  H   -2.78527261000000     -0.67110492000000     -2.38328310000000
  H   -1.12758233000000     -0.31863399000000     -2.93579894000000
  C   -1.85070112000000     -1.04559857000000      1.52253788000000
  C   -2.34898513000000     -1.96616223000000      2.46181546000000
  C   -1.96375414000000     -1.87081257000000      3.79093459000000
  C   -1.08594206000000     -0.86898443000000      4.15998127000000
  C   -0.61655365000000      0.04860873000000      3.20977549000000
  C   -0.76308278000000     -0.16916054000000      1.78620386000000
  H   -0.78418113000000     -0.76870803000000      5.20554093000000
  H   0.00104789000000      0.83019911000000      3.59121111000000
  H   -3.10891144000000     -2.68936921000000      2.20203901000000
  H   -2.41830254000000     -2.48808755000000      4.54711728000000
  H   -0.71095980000000      3.76332452000000      0.73972081000000
  C   -2.37325027000000     -1.04454532000000      0.12847375000000
  H   -2.97612411000000     -0.14375438000000      0.05230896000000
  H   -3.01017702000000     -1.89018143000000     -0.11889258000000
  O   1.38859827000000      0.62104703000000     -1.94837645000000
  C   2.19147246000000     -0.32978127000000     -2.37812612000000
  O   2.16605899000000     -1.51724026000000     -2.13844954000000
  C   3.19336374000000      0.17321597000000     -3.49016413000000
  H   3.55763873000000     -0.66934950000000     -4.07749016000000
  H   4.04570908000000      0.57815179000000     -2.94765210000000
  H   2.82790445000000      0.95401090000000     -4.15971500000000
