38
Coordinates from ORCA-job 9_7_orca
  Pd  0.34770230000000      0.20259058000000     -0.07245235000000
  O   1.91524347000000      1.32185467000000      0.63511575000000
  C   1.76022902000000      2.58235220000000      0.42388092000000
  O   0.66280620000000      3.03043357000000     -0.08730677000000
  C   2.94969819000000      3.50736580000000      0.69109271000000
  H   2.58905726000000      4.43740009000000      1.13248508000000
  H   3.40626076000000      3.77166180000000     -0.26449816000000
  H   3.70114524000000      3.06276449000000      1.32381336000000
  N   -1.28761124000000     -0.96254441000000     -0.93647072000000
  C   -0.89594981000000     -2.32829611000000     -1.31145470000000
  H   -0.11257475000000     -2.31085157000000     -2.03833379000000
  H   -1.75904938000000     -2.83012144000000     -1.74556980000000
  H   -0.55635100000000     -2.86142091000000     -0.42774385000000
  C   -1.80873767000000     -0.27149511000000     -2.12729129000000
  H   -1.94737131000000      0.78287677000000     -1.93243033000000
  H   -2.75546580000000     -0.72602950000000     -2.41142344000000
  H   -1.11554662000000     -0.39515851000000     -2.95130420000000
  C   -1.85014929000000     -1.08056066000000      1.50902621000000
  C   -2.40261845000000     -1.93412401000000      2.47401958000000
  C   -2.02376164000000     -1.82468458000000      3.80595322000000
  C   -1.08438327000000     -0.88569697000000      4.16881094000000
  C   -0.56101274000000     -0.01781048000000      3.21167865000000
  C   -0.83720962000000     -0.16034687000000      1.82116487000000
  H   -0.79328885000000     -0.77534239000000      5.21226952000000
  H   0.07545420000000      0.73824159000000      3.59231284000000
  H   -3.19593419000000     -2.61352381000000      2.22927516000000
  H   -2.50097383000000     -2.42004119000000      4.56320700000000
  H   -0.76345036000000      3.85884995000000      0.74725414000000
  C   -2.36738518000000     -1.03011565000000      0.12242471000000
  H   -2.97065279000000     -0.12783742000000      0.03668560000000
  H   -3.03303990000000     -1.86219065000000     -0.10013062000000
  O   1.39126830000000      0.63624612000000     -1.93457344000000
  C   2.16399621000000     -0.28582990000000     -2.43233215000000
  O   2.15926465000000     -1.46759398000000     -2.14653132000000
  C   3.16152848000000      0.22198049000000     -3.51723264000000
  H   3.52901745000000     -0.60504835000000     -4.11792712000000
  H   4.01952190000000      0.62800609000000     -2.97434170000000
  H   2.79122357000000      0.99968355000000     -4.17242664000000
