38
Coordinates from ORCA-job 9_8_orca
  Pd  0.26681999000000      0.32011141000000      0.12161896000000
  O   1.82143660000000      1.39012195000000      0.58719180000000
  C   1.65736960000000      2.60512341000000      0.43842535000000
  O   0.42017241000000      3.08793853000000      0.01258111000000
  C   2.89041185000000      3.52969344000000      0.66742567000000
  H   2.51800982000000      4.45553211000000      1.10481724000000
  H   3.35993556000000      3.81407123000000     -0.28583420000000
  H   3.68583412000000      3.10859949000000      1.32652701000000
  N   -1.34603694000000     -0.94686806000000     -0.95971140000000
  C   -0.93936514000000     -2.28840364000000     -1.46076999000000
  H   -0.14445160000000     -2.15617289000000     -2.20792125000000
  H   -1.88425238000000     -2.69725023000000     -1.83405675000000
  H   -0.60313863000000     -2.87019862000000     -0.60522882000000
  C   -1.87294918000000     -0.13492083000000     -2.09115767000000
  H   -1.99480515000000      0.91862965000000     -1.80061220000000
  H   -2.84033882000000     -0.57007657000000     -2.34027221000000
  H   -1.15471055000000     -0.18154365000000     -2.90990150000000
  C   -1.83298378000000     -1.01079247000000      1.53368008000000
  C   -2.25171672000000     -2.01381281000000      2.44058637000000
  C   -1.85232625000000     -1.94730806000000      3.76507400000000
  C   -1.09020971000000     -0.83341354000000      4.14556941000000
  C   -0.69863739000000      0.14903886000000      3.19831262000000
  C   -0.68159529000000     -0.16921554000000      1.75217006000000
  H   -0.77151445000000     -0.75365924000000      5.19187512000000
  H   -0.14062610000000      0.99200722000000      3.59567245000000
  H   -2.94683426000000     -2.82032343000000      2.15351224000000
  H   -2.26328851000000     -2.61066555000000      4.51761529000000
  H   -0.62226861000000      3.59293349000000      0.72645223000000
  C   -2.37410193000000     -1.06649550000000      0.12874579000000
  H   -2.99106800000000     -0.17416712000000      0.07674470000000
  H   -2.97359475000000     -1.94117079000000     -0.14149291000000
  O   1.39660801000000      0.57269155000000     -1.95324114000000
  C   2.22510967000000     -0.38827247000000     -2.31683315000000
  O   2.17410063000000     -1.60056318000000     -2.11637312000000
  C   3.24930639000000      0.08206901000000     -3.43194793000000
  H   3.61154481000000     -0.78311209000000     -4.00369568000000
  H   4.09804152000000      0.48992133000000     -2.89808432000000
  H   2.89736806000000      0.86566320000000     -4.13247028000000
