38
Coordinates from ORCA-job 9_9_orca
  Pd  0.32169853000000      0.24037368000000     -0.01005817000000
  O   1.88508444000000      1.34380269000000      0.61970814000000
  C   1.72715959000000      2.58967317000000      0.42855697000000
  O   0.58479912000000      3.04892149000000     -0.05519268000000
  C   2.93063755000000      3.51454416000000      0.68348373000000
  H   2.56621541000000      4.44322956000000      1.12358984000000
  H   3.39136714000000      3.78529649000000     -0.27135772000000
  H   3.69622270000000      3.07750050000000      1.32468580000000
  N   -1.30639518000000     -0.95750444000000     -0.94394263000000
  C   -0.90990790000000     -2.31547063000000     -1.35945976000000
  H   -0.12282320000000     -2.26112217000000     -2.09285638000000
  H   -1.79930231000000     -2.78740317000000     -1.77401847000000
  H   -0.57139328000000     -2.86424295000000     -0.48480550000000
  C   -1.82938175000000     -0.22758630000000     -2.11567429000000
  H   -1.96262135000000      0.82652150000000     -1.89005063000000
  H   -2.78275259000000     -0.67589043000000     -2.38854822000000
  H   -1.12813787000000     -0.32648105000000     -2.93799318000000
  C   -1.84463055000000     -1.05813009000000      1.51695246000000
  C   -2.35410335000000     -1.95974406000000      2.46327076000000
  C   -1.96864494000000     -1.86410819000000      3.79281050000000
  C   -1.08625648000000     -0.86888777000000      4.16133876000000
  C   -0.60525925000000      0.03583180000000      3.20738146000000
  C   -0.78717941000000     -0.16319816000000      1.79898295000000
  H   -0.78628835000000     -0.76837123000000      5.20571269000000
  H   0.00598410000000      0.81982757000000      3.59339296000000
  H   -3.11584824000000     -2.68001016000000      2.20491728000000
  H   -2.42455769000000     -2.48132718000000      4.54854921000000
  H   -0.71806024000000      3.77335746000000      0.74056630000000
  C   -2.36954462000000     -1.04181182000000      0.12445694000000
  H   -2.97721630000000     -0.14273248000000      0.04956465000000
  H   -3.01392820000000     -1.88758287000000     -0.11342865000000
  O   1.39298502000000      0.61581324000000     -1.94057513000000
  C   2.18364427000000     -0.31876532000000     -2.39519907000000
  O   2.16403443000000     -1.51034375000000     -2.13683542000000
  C   3.18974919000000      0.17699876000000     -3.48981349000000
  H   3.55555010000000     -0.66229607000000     -4.08120156000000
  H   4.04476606000000      0.58361166000000     -2.94982485000000
  H   2.82534916000000      0.95659583000000     -4.15958062000000
