39
Coordinates from ORCA-job 3_0_orca
  Ir  0.46899650000000     -0.74387759000000      0.79568958000000
  C   -0.08631597000000     -2.79056686000000      1.49926827000000
  C   0.59547941000000     -2.10129971000000      2.56101679000000
  C   1.99777365000000     -2.21989910000000      0.71196108000000
  C   0.76637247000000     -2.85085389000000      0.36856913000000
  C   1.88723081000000     -1.81468903000000      2.07933818000000
  N   -1.00934145000000     -0.02457146000000     -0.43661274000000
  C   -2.42136663000000      0.01492282000000     -0.00159895000000
  C   -2.88429320000000      1.38342766000000      0.47568401000000
  H   -3.91433764000000      1.37768658000000      0.83309288000000
  H   -2.81605030000000      2.10792935000000     -0.33447327000000
  H   -2.30224283000000      1.73373994000000      1.31928208000000
  C   -3.45158504000000     -0.53514977000000     -0.98542392000000
  H   -2.47980112000000     -0.62237622000000      0.88058261000000
  H   -4.42417006000000     -0.65406260000000     -0.50918037000000
  H   -3.59593153000000      0.12370813000000     -1.84224195000000
  H   -3.15472958000000     -1.51514338000000     -1.35629237000000
  C   -0.74763518000000      0.25612094000000     -1.65748329000000
  C   0.53387875000000      0.22860215000000     -2.28638842000000
  H   -1.56281275000000      0.54730764000000     -2.31409046000000
  C   1.73769006000000     -0.00902691000000     -1.68671163000000
  C   2.83852343000000     -0.02979274000000     -2.56549094000000
  S   0.76026677000000      0.16607464000000     -3.98227813000000
  C   2.43487060000000     -0.01120755000000     -3.87014879000000
  H   2.25229091000000      1.12213318000000     -0.81932898000000
  H   3.89121506000000     -0.06243945000000     -2.31972099000000
  H   3.06190361000000     -0.11094698000000     -4.74308659000000
  H   -0.92574928000000     -3.45411668000000      1.64527465000000
  H   0.22271843000000     -2.01138232000000      3.57015157000000
  H   2.70369797000000     -1.40916064000000      2.65959614000000
  O   1.81050214000000      1.84210359000000      0.62496173000000
  O   0.18812389000000      1.09698275000000      1.78250024000000
  C   0.88269930000000      2.06825200000000      1.45394466000000
  C   0.81286245000000      3.40993521000000      2.06913152000000
  H   0.84123076000000      4.18111502000000      1.30054186000000
  H   1.66438252000000      3.59724284000000      2.72441729000000
  H   -0.09234197000000      3.52333209000000      2.65779217000000
  H   2.93732248000000     -2.34532396000000      0.19869472000000
  H   0.57867377000000     -3.46471093000000     -0.50093407000000
