39
Coordinates from ORCA-job 3_13_orca
  Ir  0.42634488000000     -0.81714178000000      0.91281577000000
  C   -0.05222617000000     -2.84115411000000      1.39008007000000
  C   0.53487865000000     -2.11901301000000      2.50725098000000
  C   2.11269810000000     -2.29558775000000      0.87745774000000
  C   0.93254210000000     -2.94856294000000      0.37873750000000
  C   1.88523053000000     -1.78817474000000      2.19834851000000
  N   -1.04172490000000     -0.09630281000000     -0.47804810000000
  C   -2.44255128000000     -0.03532634000000      0.02355116000000
  C   -2.83650628000000      1.35420120000000      0.56115062000000
  H   -3.88425411000000      1.28823248000000      0.86816591000000
  H   -2.78655905000000      2.13387260000000     -0.20925968000000
  H   -2.21814884000000      1.66997465000000      1.40966756000000
  C   -3.45555862000000     -0.51965733000000     -1.01818525000000
  H   -2.46543625000000     -0.74561796000000      0.86646414000000
  H   -4.41385914000000     -0.62438934000000     -0.51811132000000
  H   -3.62266557000000      0.19944478000000     -1.82418032000000
  H   -3.18682816000000     -1.48802278000000     -1.45052549000000
  C   -0.78047962000000      0.28409754000000     -1.67487764000000
  C   0.55542170000000      0.27276647000000     -2.27693564000000
  H   -1.58661802000000      0.56265982000000     -2.35465508000000
  C   1.82064476000000      0.41317100000000     -1.67788975000000
  C   2.86224601000000      0.01094454000000     -2.57910954000000
  S   0.70169360000000      0.06762088000000     -3.95994404000000
  C   2.38887530000000     -0.09634901000000     -3.87642953000000
  H   1.84545166000000      0.55270802000000     -0.62488769000000
  H   3.89280409000000     -0.13673531000000     -2.24768507000000
  H   3.00915043000000     -0.08503756000000     -4.73202484000000
  H   -1.06892351000000     -3.23981109000000      1.37789517000000
  H   0.02319047000000     -1.91343834000000      3.43002019000000
  H   2.59707544000000     -1.27461627000000      2.85053276000000
  O   1.90797512000000      1.98491498000000      0.61175986000000
  O   0.27770053000000      1.05734370000000      1.67882601000000
  C   1.09711071000000      2.05890484000000      1.30934201000000
  C   0.80018546000000      3.37198000000000      2.02925144000000
  H   0.82418502000000      4.15643520000000      1.27149623000000
  H   1.67177244000000      3.57751137000000      2.65106337000000
  H   -0.09186951000000      3.50359004000000      2.63241623000000
  H   2.98450239000000     -2.08366223000000      0.26872102000000
  H   0.78305979000000     -3.37523482000000     -0.61688902000000
