39
Coordinates from ORCA-job 3_14_orca
  Ir  0.45848476000000     -0.77718182000000      0.88884172000000
  C   -0.05531500000000     -2.83165688000000      1.41507049000000
  C   0.54856099000000     -2.11637193000000      2.51116996000000
  C   2.07815751000000     -2.29812273000000      0.84723195000000
  C   0.88691685000000     -2.91801369000000      0.37038107000000
  C   1.88304474000000     -1.78222109000000      2.16400572000000
  N   -1.04433375000000     -0.07752822000000     -0.48383516000000
  C   -2.45777044000000     -0.01801221000000      0.02921439000000
  C   -2.85146920000000      1.37079310000000      0.54293829000000
  H   -3.89607606000000      1.30735051000000      0.85782202000000
  H   -2.79692496000000      2.12820013000000     -0.24511286000000
  H   -2.23900278000000      1.68282083000000      1.39063007000000
  C   -3.45275327000000     -0.52413118000000     -1.01277419000000
  H   -2.46750396000000     -0.71890824000000      0.87535946000000
  H   -4.41255308000000     -0.62896323000000     -0.51481609000000
  H   -3.61871642000000      0.18203820000000     -1.82993056000000
  H   -3.17968381000000     -1.49834878000000     -1.42590483000000
  C   -0.76548044000000      0.28087443000000     -1.68700523000000
  C   0.56993320000000      0.23289846000000     -2.24902823000000
  H   -1.59934908000000      0.55967455000000     -2.34631457000000
  C   1.82607786000000      0.33493281000000     -1.68158444000000
  C   2.84942064000000     -0.03645846000000     -2.56934507000000
  S   0.71253435000000      0.11298491000000     -3.96551699000000
  C   2.40314385000000     -0.06420777000000     -3.85967377000000
  H   1.95112414000000      0.72153295000000     -0.70940112000000
  H   3.87758504000000     -0.11977998000000     -2.26430475000000
  H   3.03132413000000     -0.08256781000000     -4.73014352000000
  H   -1.02383982000000     -3.32174426000000      1.45774233000000
  H   0.07867937000000     -1.94946465000000      3.46549859000000
  H   2.62336446000000     -1.31610412000000      2.80231728000000
  O   1.91334360000000      1.96071402000000      0.57000654000000
  O   0.21451183000000      1.06007372000000      1.72071892000000
  C   1.03959383000000      2.04102509000000      1.35871309000000
  C   0.80350686000000      3.38911950000000      2.03836555000000
  H   0.83257302000000      4.17428547000000      1.27623842000000
  H   1.67413470000000      3.58556010000000      2.66804407000000
  H   -0.09328197000000      3.51841712000000      2.64221007000000
  H   2.97248826000000     -2.15878823000000      0.25680054000000
  H   0.72567168000000     -3.40788334000000     -0.58280025000000
