39
Coordinates from ORCA-job 3_2_orca
  Ir  0.48215728000000     -0.73923217000000      0.80380616000000
  C   -0.07697754000000     -2.79345822000000      1.49062025000000
  C   0.58458158000000     -2.11010376000000      2.54188279000000
  C   1.99783938000000     -2.23307383000000      0.74030554000000
  C   0.77956989000000     -2.85642148000000      0.36451177000000
  C   1.89171859000000     -1.80475023000000      2.08953724000000
  N   -1.01533705000000     -0.03227603000000     -0.44642681000000
  C   -2.44034897000000      0.00999945000000      0.01513796000000
  C   -2.87685546000000      1.38472949000000      0.48419314000000
  H   -3.91372447000000      1.36663462000000      0.83779840000000
  H   -2.81455990000000      2.10867404000000     -0.32149502000000
  H   -2.29615908000000      1.72335094000000      1.32939917000000
  C   -3.44613052000000     -0.53469938000000     -0.99467971000000
  H   -2.47789837000000     -0.63307592000000      0.87586850000000
  H   -4.42464738000000     -0.65003821000000     -0.50774987000000
  H   -3.60016055000000      0.13183943000000     -1.83970991000000
  H   -3.16006041000000     -1.51102502000000     -1.36458365000000
  C   -0.75624007000000      0.26437634000000     -1.67146362000000
  C   0.53407790000000      0.21389848000000     -2.29169029000000
  H   -1.56827933000000      0.54694539000000     -2.31380455000000
  C   1.77625270000000      0.05113239000000     -1.62924490000000
  C   2.83326938000000     -0.04777524000000     -2.57301317000000
  S   0.74777883000000      0.16914393000000     -3.99626385000000
  C   2.43434016000000     -0.01070567000000     -3.86838047000000
  H   2.21554671000000      1.07792567000000     -0.82555732000000
  H   3.88559400000000     -0.06994005000000     -2.30978530000000
  H   3.06097131000000     -0.10544050000000     -4.74159566000000
  H   -0.93248103000000     -3.44905680000000      1.62352949000000
  H   0.20249157000000     -2.00773017000000      3.56106468000000
  H   2.68591910000000     -1.40293490000000      2.67536905000000
  O   1.81385011000000      1.86576323000000      0.61935912000000
  O   0.15301418000000      1.07233671000000      1.79428125000000
  C   0.95102734000000      2.06250557000000      1.40608633000000
  C   0.80313662000000      3.41954762000000      2.07035413000000
  H   0.84203959000000      4.18335962000000      1.29560857000000
  H   1.66926488000000      3.59656524000000      2.71663663000000
  H   -0.08900064000000      3.52597288000000      2.65479309000000
  H   2.94525914000000     -2.32455559000000      0.21027558000000
  H   0.59911020000000     -3.45897204000000     -0.50534859000000
