39
Coordinates from ORCA-job 3_3_orca
  Ir  0.50795743000000     -0.72876569000000      0.82756709000000
  C   -0.05853192000000     -2.81526595000000      1.44732237000000
  C   0.55368233000000     -2.12447172000000      2.50814580000000
  C   2.02297527000000     -2.26872406000000      0.81365066000000
  C   0.82698548000000     -2.87182760000000      0.36065094000000
  C   1.87874213000000     -1.78152762000000      2.12332688000000
  N   -1.03369159000000     -0.05455783000000     -0.47936632000000
  C   -2.48184803000000     -0.00024336000000      0.04378284000000
  C   -2.86332239000000      1.37978989000000      0.51908494000000
  H   -3.90698732000000      1.33116049000000      0.85610921000000
  H   -2.80748248000000      2.11120669000000     -0.27708305000000
  H   -2.27367036000000      1.68585156000000      1.36683375000000
  C   -3.44414440000000     -0.52771053000000     -1.01061581000000
  H   -2.47445229000000     -0.67645482000000      0.86890443000000
  H   -4.42196908000000     -0.63637694000000     -0.50847214000000
  H   -3.61352229000000      0.16290051000000     -1.83193501000000
  H   -3.17670545000000     -1.49928028000000     -1.39526476000000
  C   -0.77589392000000      0.27933474000000     -1.69691947000000
  C   0.56059530000000      0.17524814000000     -2.28414044000000
  H   -1.59439265000000      0.54928861000000     -2.32123807000000
  C   1.85529654000000      0.24481683000000     -1.49939869000000
  C   2.82558559000000     -0.09658435000000     -2.57231297000000
  S   0.71914518000000      0.17505178000000     -4.02073169000000
  C   2.42490487000000     -0.01271464000000     -3.86657184000000
  H   2.10065401000000      0.92483784000000     -0.85805969000000
  H   3.86518140000000     -0.09736452000000     -2.28144168000000
  H   3.05938027000000     -0.08752965000000     -4.73434883000000
  H   -0.94772852000000     -3.43029568000000      1.54542682000000
  H   0.13263414000000     -1.99954271000000      3.51548337000000
  H   2.63129803000000     -1.37719067000000      2.73886782000000
  O   1.89921672000000      1.92139044000000      0.53664449000000
  O   0.11855188000000      1.05172009000000      1.78428723000000
  C   1.01256375000000      2.03629416000000      1.37472379000000
  C   0.80115326000000      3.42983958000000      2.05307877000000
  H   0.84358219000000      4.19469517000000      1.27927034000000
  H   1.68237891000000      3.59768228000000      2.68884164000000
  H   -0.08644053000000      3.53049714000000      2.64722739000000
  H   2.96436537000000     -2.25417568000000      0.26127170000000
  H   0.67374284000000     -3.44323178000000     -0.52402511000000
