9

Pt        -0.49266       -0.75400        0.32341
Cl        -0.11946       -0.19335        2.54426
Cl        -1.94484       -2.27007        1.24259
Cl        -0.97102       -1.50890       -1.81894
C          0.73082        0.76354       -0.37204
H          1.50747        0.99039        0.35812
H          0.64090       -1.70828        0.40529
H          1.17096        0.48770       -1.33021
H          0.05108        1.61190       -0.48891
