38
Coordinates from ORCA-job 6_0_orca
  C   -2.22776218000000     -0.05653594000000      0.67206805000000
  C   -1.86160466000000      0.99042765000000      1.52737521000000
  C   -3.58476784000000     -0.38602332000000      0.65595417000000
  C   -4.58377327000000      0.52344671000000      0.98359349000000
  C   -4.21030611000000      1.63601803000000      1.71995706000000
  C   -2.86360652000000      1.92471671000000      1.83865726000000
  H   -2.61123542000000     -1.62214892000000     -1.91288765000000
  H   -3.92522572000000     -1.40318799000000      0.51134569000000
  H   -2.62669877000000      2.95020965000000      2.11402951000000
  H   -5.63459092000000      0.30661823000000      0.82808738000000
  H   -4.97316589000000      2.32842651000000      2.05515693000000
  C   -0.44584917000000      1.42689308000000      1.82181630000000
  C   0.71888908000000      0.46499919000000      1.94685686000000
  H   -0.45787976000000      1.99530597000000      2.76164012000000
  H   -0.26060796000000      2.17490500000000      1.04366067000000
  C   1.75041919000000      0.64268504000000      0.85542206000000
  H   0.36703537000000     -0.56925859000000      1.94642371000000
  H   1.24584826000000      0.53386415000000      2.90878867000000
  C   1.58848036000000      0.06362017000000     -0.41180125000000
  C   2.62014806000000      0.25912901000000     -1.33170365000000
  C   3.66037982000000      1.15923774000000     -1.12484730000000
  C   2.92181688000000      1.35762278000000      1.13174103000000
  C   3.74119591000000      1.80073690000000      0.10019449000000
  H   2.67832340000000     -0.33897544000000     -2.23272133000000
  H   4.38406993000000      1.36044323000000     -1.90654060000000
  H   3.04455126000000      1.79417941000000      2.11863624000000
  H   4.44126711000000      2.61737751000000      0.22809479000000
  Pd  0.18115827000000     -1.27326854000000     -0.70422502000000
  Br  -1.51991768000000     -3.76476472000000     -0.68823796000000
  P   1.41330687000000     -3.00229031000000      0.00299716000000
  H   1.07262552000000     -3.60256539000000      1.23023708000000
  C   0.34653238000000     -1.40454899000000     -3.84839456000000
  O   1.44956248000000     -1.77043288000000     -4.18185355000000
  O   -0.51113014000000     -2.17169167000000     -3.27507154000000
  O   -0.21792387000000     -0.26094508000000     -4.28041350000000
  H   2.77879574000000     -2.81337659000000      0.31443320000000
  H   1.63540260000000     -4.16167101000000     -0.76443519000000
  H   0.47622811000000      0.29082290000000     -4.65401876000000
