38
Coordinates from ORCA-job 6_1_orca
  C   -2.20817298000000     -0.07645629000000      0.72282441000000
  C   -1.85452517000000      1.00274955000000      1.45347250000000
  C   -3.60172549000000     -0.39624239000000      0.63193589000000
  C   -4.57269146000000      0.50468439000000      1.03844431000000
  C   -4.21443298000000      1.66403267000000      1.66095851000000
  C   -2.88215060000000      1.92905868000000      1.87143003000000
  H   -2.54730005000000     -1.65044270000000     -1.89645576000000
  H   -3.91237644000000     -1.40438548000000      0.46361346000000
  H   -2.61020575000000      2.93975199000000      2.14224202000000
  H   -5.63128331000000      0.29625263000000      0.82776884000000
  H   -4.96729243000000      2.33966763000000      2.04711724000000
  C   -0.45531527000000      1.47426247000000      1.83894260000000
  C   0.74456606000000      0.42054039000000      1.93977870000000
  H   -0.46947456000000      1.99198597000000      2.76178228000000
  H   -0.23825136000000      2.17738744000000      1.05545790000000
  C   1.76040218000000      0.62181869000000      0.87273259000000
  H   0.36053040000000     -0.57046733000000      1.94427067000000
  H   1.23679637000000      0.54899876000000      2.90802005000000
  C   1.61882575000000      0.05031491000000     -0.39260060000000
  C   2.61839503000000      0.23962632000000     -1.35412837000000
  C   3.63742718000000      1.17288974000000     -1.11603631000000
  C   2.87986380000000      1.41258543000000      1.12070741000000
  C   3.75723029000000      1.78246583000000      0.09585235000000
  H   2.66121479000000     -0.33692031000000     -2.24042133000000
  H   4.37725601000000      1.36030094000000     -1.90783225000000
  H   3.04341634000000      1.79206547000000      2.11955977000000
  H   4.45126229000000      2.60687145000000      0.24056992000000
  Pd  0.09991718000000     -1.29110448000000     -0.71340139000000
  Br  -1.53097466000000     -3.72668919000000     -0.68941573000000
  P   1.44969508000000     -3.01098753000000      0.00485030000000
  H   1.07097052000000     -3.59919877000000      1.22332608000000
  C   0.22236538000000     -1.52820420000000     -3.84846613000000
  O   1.52570770000000     -1.73965381000000     -4.18698284000000
  O   -0.49323823000000     -2.11572343000000     -3.25297950000000
  O   -0.20709391000000     -0.21082707000000     -4.27450765000000
  H   2.78178808000000     -2.80573040000000      0.31220934000000
  H   1.62211431000000     -4.15384212000000     -0.76967401000000
  H   0.47519048000000      0.28966686000000     -4.65407284000000
