38
Coordinates from ORCA-job 6_2_orca
  C   -2.21070754000000     -0.09185749000000      0.73259599000000
  C   -1.85316848000000      1.01977064000000      1.44117321000000
  C   -3.59905661000000     -0.39649753000000      0.62937132000000
  C   -4.57500273000000      0.49075258000000      1.05036427000000
  C   -4.21309326000000      1.67852224000000      1.64890328000000
  C   -2.88394246000000      1.92555528000000      1.87560535000000
  H   -2.52209086000000     -1.66062260000000     -1.88489266000000
  H   -3.90938550000000     -1.40769038000000      0.44527315000000
  H   -2.60409463000000      2.93618900000000      2.15508707000000
  H   -5.62768192000000      0.29251213000000      0.83091279000000
  H   -4.96584989000000      2.34398272000000      2.04369793000000
  C   -0.45350166000000      1.47502555000000      1.83372353000000
  C   0.74617057000000      0.41881271000000      1.93956235000000
  H   -0.47433392000000      1.99632026000000      2.76614164000000
  H   -0.22860753000000      2.18139939000000      1.05546012000000
  C   1.76535005000000      0.61539258000000      0.87601205000000
  H   0.35554640000000     -0.57665213000000      1.94288469000000
  H   1.23313383000000      0.55404109000000      2.90768882000000
  C   1.62559881000000      0.03955383000000     -0.39068091000000
  C   2.61735276000000      0.23753994000000     -1.35251933000000
  C   3.63253923000000      1.17235936000000     -1.12260399000000
  C   2.86826164000000      1.43028790000000      1.11536441000000
  C   3.75920223000000      1.78047953000000      0.10148827000000
  H   2.65487273000000     -0.33945043000000     -2.24915663000000
  H   4.37300030000000      1.36001036000000     -1.90584443000000
  H   3.04219707000000      1.79292059000000      2.12043785000000
  H   4.45554895000000      2.60125794000000      0.24503901000000
  Pd  0.07665417000000     -1.29715393000000     -0.71338186000000
  Br  -1.53679758000000     -3.71034291000000     -0.69240207000000
  P   1.45630539000000     -3.00961129000000      0.00451950000000
  H   1.06952394000000     -3.59783022000000      1.22119704000000
  C   0.28164597000000     -1.50444366000000     -3.90498655000000
  O   1.51563670000000     -1.72900794000000     -4.17993982000000
  O   -0.54652681000000     -2.14769316000000     -3.20167443000000
  O   -0.21787630000000     -0.20915044000000     -4.26542152000000
  H   2.78653259000000     -2.80236118000000      0.31345228000000
  H   1.61776153000000     -4.15272913000000     -0.77195786000000
  H   0.48674524000000      0.29173007000000     -4.65937075000000
