30
Coordinates from ORCA-job 1_10_orca
  Lu  0.07799529000000     -0.42138225000000      0.32051544000000
  C   0.55229254000000      0.46822951000000      2.69520329000000
  C   1.69569326000000     -0.25569205000000      2.28925777000000
  C   2.32702387000000      0.46863231000000      1.25809569000000
  C   1.56432635000000      1.62251007000000      1.00312382000000
  C   0.47074795000000      1.62541202000000      1.89808940000000
  H   1.80594731000000      2.39392072000000      0.28540959000000
  H   -0.27360789000000      2.40572290000000      1.98327716000000
  H   -0.13567463000000      0.18480134000000      3.47670241000000
  H   2.05344675000000     -1.17782236000000      2.72559156000000
  H   3.25133510000000      0.19867016000000      0.76866445000000
  C   0.63016539000000     -0.15266154000000     -2.23190790000000
  C   -0.53072699000000     -0.95618504000000     -2.17312622000000
  C   1.18776526000000     -2.13077075000000     -1.24534784000000
  C   1.69214845000000     -0.88674892000000     -1.67568029000000
  H   0.70953833000000      0.82471084000000     -2.68776161000000
  C   -0.18732325000000     -2.17710889000000     -1.56859324000000
  H   -1.50620479000000     -0.69022350000000     -2.55401484000000
  H   2.72294099000000     -0.56783766000000     -1.62498342000000
  H   1.76892897000000     -2.93386184000000     -0.81495621000000
  H   -0.85727269000000     -3.00334336000000     -1.38499962000000
  C   -1.97070429000000     -1.29824877000000      1.09575550000000
  H   -2.34175829000000     -0.92529612000000      2.05788644000000
  H   -1.94607300000000     -2.39571837000000      1.19490726000000
  H   -2.77690829000000     -1.10748437000000      0.37031788000000
  C   -1.99370084000000      2.19642102000000     -1.08465598000000
  H   -2.14216267000000      1.39511871000000     -0.29900236000000
  H   -0.93255129000000      2.45863835000000     -1.07678563000000
  H   -2.62267677000000      3.03902394000000     -0.78396392000000
  H   -2.30602260000000      1.78112216000000     -2.04691291000000
