30
Coordinates from ORCA-job 1_2_orca
  Lu  0.06363787000000     -0.41653854000000      0.32043806000000
  C   0.56516910000000      0.43427920000000      2.69898688000000
  C   1.72426608000000     -0.25870117000000      2.28757744000000
  C   2.33541829000000      0.48572523000000      1.25901384000000
  C   1.54489595000000      1.62284955000000      1.01504655000000
  C   0.45187765000000      1.59047272000000      1.90857915000000
  H   1.74727911000000      2.39951811000000      0.29162846000000
  H   -0.29374781000000      2.36245382000000      2.02658824000000
  H   -0.10301660000000      0.13997602000000      3.49182073000000
  H   2.09939097000000     -1.17751228000000      2.71457775000000
  H   3.26745995000000      0.24505447000000      0.76726758000000
  C   0.61141825000000     -0.16504718000000     -2.22852861000000
  C   -0.54212126000000     -0.97717167000000     -2.14563196000000
  C   1.20386155000000     -2.14090859000000     -1.26263793000000
  C   1.69005120000000     -0.88962237000000     -1.69438974000000
  H   0.66000891000000      0.81934558000000     -2.67491326000000
  C   -0.17532948000000     -2.19727999000000     -1.55605601000000
  H   -1.52059797000000     -0.73396231000000     -2.53303955000000
  H   2.72133216000000     -0.56235001000000     -1.65547101000000
  H   1.79295333000000     -2.93774796000000     -0.83240083000000
  H   -0.83000754000000     -3.03526455000000     -1.38243983000000
  C   -1.96767421000000     -1.27474508000000      1.09291706000000
  H   -2.37348931000000     -0.89895847000000      2.05109851000000
  H   -2.01301122000000     -2.37385575000000      1.19194054000000
  H   -2.76489086000000     -1.06950055000000      0.34909964000000
  C   -1.98167556000000      2.14123404000000     -1.03882045000000
  H   -2.16027010000000      1.42611091000000     -0.35879774000000
  H   -0.94540794000000      2.56356649000000     -1.16690084000000
  H   -2.56966914000000      3.04200610000000     -0.84542290000000
  H   -2.24279396000000      1.83570252000000     -2.05242363000000
