21
Coordinates from ORCA-job 10_13_orca
  C   -1.34806780000000      0.14621376000000     -0.76225450000000
  C   -2.20971154000000     -0.87093153000000     -1.16857536000000
  C   -1.97695074000000     -2.18449247000000     -0.77005076000000
  C   -0.94427281000000     -2.44096610000000      0.13064234000000
  C   -0.22638657000000     -0.14304538000000      0.00614565000000
  C   -0.09970558000000     -1.41836305000000      0.53857411000000
  H   -1.54670250000000      1.15212754000000     -1.10508892000000
  H   -3.01554217000000     -0.65202647000000     -1.86969514000000
  H   -2.55696586000000     -3.00354766000000     -1.19413723000000
  H   0.69841823000000     -1.64538178000000      1.22787165000000
  H   -0.74249055000000     -3.46264191000000      0.45018219000000
  Pd  1.36865914000000      0.96418042000000     -0.15228043000000
  O   3.42424973000000      1.44070679000000     -0.90568958000000
  O   2.64290717000000     -0.56683619000000     -0.52534700000000
  O   0.34366260000000      2.74758116000000      0.28333590000000
  C   -0.22088282000000      2.80260600000000      1.34788559000000
  O   -0.03482969000000      1.88884376000000      2.26589205000000
  H   -0.81138474000000      1.70818668000000      2.80562483000000
  C   3.57026931000000      0.20575715000000     -0.91369439000000
  H   4.51316134000000     -0.25709477000000     -1.24865067000000
  H   -0.88801457000000      3.62044930000000      1.58346636000000
