21
Coordinates from ORCA-job 10_12_orca
  C   -1.34483618000000      0.14001089000000     -0.77734705000000
  C   -2.22401985000000     -0.87864640000000     -1.16192669000000
  C   -2.00269863000000     -2.18607212000000     -0.75547236000000
  C   -0.96259804000000     -2.44369539000000      0.12828484000000
  C   -0.21559528000000     -0.14565624000000     -0.01403530000000
  C   -0.09725121000000     -1.42338669000000      0.52137120000000
  H   -1.53374184000000      1.15226719000000     -1.13049521000000
  H   -3.03119484000000     -0.64845197000000     -1.85621219000000
  H   -2.59028126000000     -2.99052964000000     -1.15449993000000
  H   0.71713982000000     -1.65290116000000      1.20672901000000
  H   -0.75590250000000     -3.46231741000000      0.45722819000000
  Pd  1.38290061000000      0.96412097000000     -0.15900169000000
  O   3.44161826000000      1.45136644000000     -0.88458454000000
  O   2.65601362000000     -0.55634189000000     -0.54340947000000
  O   0.34472234000000      2.73815169000000      0.26730319000000
  C   -0.22088925000000      2.79999502000000      1.34874493000000
  O   -0.03259234000000      1.87736296000000      2.26999557000000
  H   -0.81029526000000      1.71062960000000      2.81816657000000
  C   3.59003247000000      0.21800822000000     -0.90381020000000
  H   4.53586216000000     -0.23995804000000     -1.23334410000000
  H   -0.90375975000000      3.61045467000000      1.58071130000000
