21
Coordinates from ORCA-job 10_3_orca
  C   -1.33644116000000      0.10778858000000     -0.88333183000000
  C   -2.29397721000000     -0.86343003000000     -1.13419770000000
  C   -2.12297040000000     -2.14450012000000     -0.64141154000000
  C   -1.01091487000000     -2.45923646000000      0.12727011000000
  C   -0.15389107000000     -0.15788801000000     -0.12657278000000
  C   -0.06828512000000     -1.48725239000000      0.41164197000000
  H   -1.47620057000000      1.08631449000000     -1.34782887000000
  H   -3.15013572000000     -0.62060216000000     -1.73979040000000
  H   -2.85550728000000     -2.89956380000000     -0.85429578000000
  H   0.79559852000000     -1.76782186000000      1.01155898000000
  H   -0.86735104000000     -3.46316686000000      0.49291236000000
  Pd  1.42100999000000      0.96178799000000     -0.24441518000000
  O   3.57359360000000      1.53212898000000     -0.70679032000000
  O   2.77311759000000     -0.49469414000000     -0.66718241000000
  O   0.28340432000000      2.66104952000000      0.19002326000000
  C   -0.22842058000000      2.73393780000000      1.28822509000000
  O   -0.05995070000000      1.86741649000000      2.38424854000000
  H   -0.74035017000000      1.67937755000000      2.88440921000000
  C   3.73857823000000      0.30576947000000     -0.84272149000000
  H   4.71985865000000     -0.10919354000000     -1.10856724000000
  H   -0.94293191000000      3.53415001000000      1.50746865000000
