21
Coordinates from ORCA-job 10_4_orca
  C   -1.32529456000000      0.11442494000000     -0.86481573000000
  C   -2.28874577000000     -0.86988280000000     -1.13514203000000
  C   -2.11534009000000     -2.15069870000000     -0.65237746000000
  C   -1.01204621000000     -2.45485857000000      0.12890512000000
  C   -0.14597784000000     -0.14922624000000     -0.12063491000000
  C   -0.06845087000000     -1.46450482000000      0.41918653000000
  H   -1.48073968000000      1.08860772000000     -1.32864738000000
  H   -3.14480206000000     -0.62481665000000     -1.75232732000000
  H   -2.83923460000000     -2.91044984000000     -0.87861052000000
  H   0.78620612000000     -1.75622761000000      1.02716880000000
  H   -0.85829716000000     -3.46780212000000      0.48713519000000
  Pd  1.39343329000000      0.93703775000000     -0.23921505000000
  O   3.57203856000000      1.52704533000000     -0.72263515000000
  O   2.76075662000000     -0.49727906000000     -0.65279013000000
  O   0.28987391000000      2.66517157000000      0.21963850000000
  C   -0.23677748000000      2.72106589000000      1.32067796000000
  O   -0.04041640000000      1.89062175000000      2.34602079000000
  H   -0.75241898000000      1.68008745000000      2.86244270000000
  C   3.72696053000000      0.30525026000000     -0.85144681000000
  H   4.71104376000000     -0.12042409000000     -1.11862452000000
  H   -0.93677901000000      3.54225153000000      1.50799925000000
