21
Coordinates from ORCA-job 10_6_orca
  C   -1.31558359000000      0.12470773000000     -0.84122300000000
  C   -2.26711223000000     -0.86497217000000     -1.13311366000000
  C   -2.09822031000000     -2.16025291000000     -0.67044203000000
  C   -1.00150950000000     -2.43727429000000      0.13450262000000
  C   -0.18039916000000     -0.17730270000000     -0.11075041000000
  C   -0.06923422000000     -1.43997056000000      0.43486703000000
  H   -1.48936955000000      1.09280087000000     -1.29277403000000
  H   -3.12805543000000     -0.63197129000000     -1.77132605000000
  H   -2.81026572000000     -2.93339988000000     -0.92523898000000
  H   0.76797857000000     -1.73481233000000      1.05434683000000
  H   -0.84114394000000     -3.46725123000000      0.47645621000000
  Pd  1.38349726000000      0.93849479000000     -0.22794200000000
  O   3.56090194000000      1.52053041000000     -0.75296378000000
  O   2.74524993000000     -0.50970354000000     -0.63218760000000
  O   0.29979045000000      2.66091435000000      0.28044785000000
  C   -0.25743996000000      2.73108270000000      1.33802369000000
  O   0.01113413000000      1.90370510000000      2.28581332000000
  H   -0.78381626000000      1.68422130000000      2.84217638000000
  C   3.70333204000000      0.29489913000000     -0.86005213000000
  H   4.68673310000000     -0.14015724000000     -1.13762101000000
  H   -0.92846420000000      3.55733229000000      1.51417070000000
