21
Coordinates from ORCA-job 10_7_orca
  C   -1.33038417000000      0.12663184000000     -0.83774160000000
  C   -2.25223925000000     -0.85514071000000     -1.13355485000000
  C   -2.08013938000000     -2.16148528000000     -0.68210726000000
  C   -0.99022784000000     -2.42853110000000      0.14135346000000
  C   -0.20919956000000     -0.19995367000000     -0.10476655000000
  C   -0.07358709000000     -1.45152856000000      0.45309718000000
  H   -1.49215884000000      1.10026439000000     -1.26167882000000
  H   -3.10353219000000     -0.63713840000000     -1.77954175000000
  H   -2.78451241000000     -2.95306444000000     -0.96539386000000
  H   0.75652310000000     -1.71325069000000      1.07517662000000
  H   -0.82713509000000     -3.45305813000000      0.46834149000000
  Pd  1.39314162000000      0.96171706000000     -0.21513633000000
  O   3.54476586000000      1.51399924000000     -0.77758160000000
  O   2.73471969000000     -0.52338499000000     -0.62019653000000
  O   0.31962973000000      2.65474153000000      0.29607586000000
  C   -0.27525855000000      2.75854394000000      1.34000992000000
  O   0.00955426000000      1.87133245000000      2.29385257000000
  H   -0.76810574000000      1.70433996000000      2.80743258000000
  C   3.68538444000000      0.28086081000000     -0.86273235000000
  H   4.65796327000000     -0.15496030000000     -1.15305643000000
  H   -0.93595255000000      3.57771576000000      1.52741607000000
