21
Coordinates from ORCA-job 6_12_orca
  C   -1.54244172000000      0.21790694000000     -0.41119566000000
  C   -2.02919384000000     -0.83218130000000     -1.20294125000000
  C   -1.64790798000000     -2.14064175000000     -0.95575232000000
  C   -0.76701877000000     -2.37832730000000      0.08540817000000
  C   -0.68752212000000      0.01742862000000      0.70793535000000
  C   -0.30772278000000     -1.33009745000000      0.89125472000000
  H   -1.87052011000000      1.21985610000000     -0.66393500000000
  H   -2.67383885000000     -0.63387610000000     -2.05370992000000
  H   -1.98314447000000     -2.95272752000000     -1.58421923000000
  H   0.38463153000000     -1.56733833000000      1.68749369000000
  H   -0.41607745000000     -3.38923303000000      0.26291330000000
  Pd  1.25255816000000      0.94747948000000     -0.04500901000000
  O   3.10065636000000      1.30138892000000     -1.18262096000000
  O   2.50347545000000     -0.58720950000000     -0.27622124000000
  O   0.32592517000000      2.65865185000000      0.21988871000000
  C   -0.09047556000000      2.88437776000000      1.41625148000000
  O   -0.02855567000000      2.10977038000000      2.36430415000000
  H   -0.41952242000000      0.90825085000000      1.54978293000000
  C   3.31482296000000      0.09437786000000     -0.96933362000000
  H   4.18621946000000     -0.43336558000000     -1.36107195000000
  H   -0.60878946000000      3.85367521000000      1.49153717000000
