21
Coordinates from ORCA-job 6_15_orca
  C   -1.56498423000000      0.22361348000000     -0.40044425000000
  C   -2.00379081000000     -0.80939658000000     -1.21049182000000
  C   -1.56929961000000     -2.10949065000000     -0.97035295000000
  C   -0.73595578000000     -2.37852980000000      0.11002498000000
  C   -0.63278064000000     -0.00745627000000      0.64745144000000
  C   -0.30469729000000     -1.34981161000000      0.92063402000000
  H   -1.89996185000000      1.22506907000000     -0.62512321000000
  H   -2.63969089000000     -0.60394100000000     -2.05871086000000
  H   -1.87705954000000     -2.91678850000000     -1.64032907000000
  H   0.36938680000000     -1.57149512000000      1.73271108000000
  H   -0.37378003000000     -3.38005949000000      0.26618137000000
  Pd  1.25292866000000      0.96673725000000     -0.04096550000000
  O   3.01693231000000      1.24944831000000     -1.19146645000000
  O   2.46825927000000     -0.61997567000000     -0.26310536000000
  O   0.32453810000000      2.68906281000000      0.21421450000000
  C   -0.12542298000000      2.91065298000000      1.39498240000000
  O   -0.14418988000000      2.14075859000000      2.34521468000000
  H   -0.43402594000000      0.82110024000000      1.56147455000000
  C   3.27798067000000      0.04634657000000     -0.96972041000000
  H   4.15690714000000     -0.45996267000000     -1.40590634000000
  H   -0.56179818000000      3.90034147000000      1.54281259000000
