21
Coordinates from ORCA-job 6_16_orca
  C   -1.56168386000000      0.22400646000000     -0.39826492000000
  C   -2.01021009000000     -0.81270092000000     -1.20539660000000
  C   -1.59445863000000     -2.11746719000000     -0.96330291000000
  C   -0.74358199000000     -2.37388827000000      0.10614628000000
  C   -0.65502553000000     -0.00131477000000      0.66642866000000
  C   -0.30927453000000     -1.34069484000000      0.91684957000000
  H   -1.89010458000000      1.22294693000000     -0.63523256000000
  H   -2.64915296000000     -0.61250122000000     -2.05681656000000
  H   -1.91348878000000     -2.93074877000000     -1.62313133000000
  H   0.37232277000000     -1.56926390000000      1.71865139000000
  H   -0.38633037000000     -3.38142483000000      0.26457164000000
  Pd  1.25442112000000      0.96187317000000     -0.04333701000000
  O   3.03979286000000      1.26671522000000     -1.18678514000000
  O   2.47690901000000     -0.60743289000000     -0.26946701000000
  O   0.32460303000000      2.67229094000000      0.22330154000000
  C   -0.11910193000000      2.90311502000000      1.40131358000000
  O   -0.10938359000000      2.13269330000000      2.34961171000000
  H   -0.41430899000000      0.83870432000000      1.52985726000000
  C   3.29126960000000      0.06345811000000     -0.96583024000000
  H   4.16688619000000     -0.45118470000000     -1.39112325000000
  H   -0.57181368000000      3.87945955000000      1.52458501000000
