21
Coordinates from ORCA-job 6_4_orca
  C   -1.60727280000000      0.18449456000000     -0.46217367000000
  C   -1.99399118000000     -0.86433450000000     -1.29733567000000
  C   -1.58009809000000     -2.15604960000000     -1.03024671000000
  C   -0.71970940000000     -2.41283547000000      0.02195004000000
  C   -0.78536902000000     -0.04989748000000      0.68141467000000
  C   -0.32044653000000     -1.37960139000000      0.87344676000000
  H   -1.96348818000000      1.17868790000000     -0.71564830000000
  H   -2.66671301000000     -0.66225708000000     -2.12105436000000
  H   -1.96136569000000     -2.96654177000000     -1.62555424000000
  H   0.36429550000000     -1.61959990000000      1.68447100000000
  H   -0.38036929000000     -3.42218166000000      0.21252029000000
  Pd  1.35936486000000      1.10548364000000      0.00936759000000
  O   3.13079041000000      1.22032134000000     -1.36285123000000
  O   2.59502322000000     -0.50257973000000     -0.17263856000000
  O   0.38928711000000      2.83416254000000      0.04281789000000
  C   0.03893522000000      2.94042914000000      1.32574678000000
  O   0.42729847000000      2.16363397000000      2.19207058000000
  H   -1.25536684000000      1.10045193000000      2.62356717000000
  C   3.38117155000000      0.05848158000000     -0.99958850000000
  H   4.21641194000000     -0.51736444000000     -1.45148416000000
  H   -0.66859584000000      3.76458240000000      1.56633031000000
