21
Coordinates from ORCA-job 6_9_orca
  C   -1.57830766000000      0.19553490000000     -0.43794240000000
  C   -2.02935250000000     -0.84942586000000     -1.24346491000000
  C   -1.63682806000000     -2.15998350000000     -0.98726880000000
  C   -0.75439321000000     -2.40036636000000      0.05901977000000
  C   -0.72112812000000     -0.00163222000000      0.69219803000000
  C   -0.31776485000000     -1.35474314000000      0.86685525000000
  H   -1.89166691000000      1.19437474000000     -0.69105505000000
  H   -2.68315280000000     -0.65856967000000     -2.08846793000000
  H   -2.01478203000000     -2.98954816000000     -1.59788252000000
  H   0.36973573000000     -1.57917615000000      1.66196230000000
  H   -0.41311453000000     -3.41211670000000      0.23576982000000
  Pd  1.28651542000000      1.00688469000000      0.01012248000000
  O   3.16194331000000      1.28785573000000     -1.28022743000000
  O   2.54956128000000     -0.52074893000000     -0.21935096000000
  O   0.36473398000000      2.73978967000000      0.14235671000000
  C   0.01084299000000      2.91911932000000      1.34391412000000
  O   0.27587368000000      2.15029595000000      2.27836606000000
  H   -0.90034980000000      0.98898644000000      2.12215747000000
  C   3.34811741000000      0.09457230000000     -0.99875042000000
  H   4.21684307000000     -0.45701659000000     -1.38802784000000
  H   -0.64811100000000      3.78869654000000      1.50447076000000
