39
Coordinates from ORCA-job 1_11_orca
  Ir  0.48355300000000     -0.65219307000000      1.02294210000000
  C   -0.09945121000000     -2.65558546000000      1.70665146000000
  C   0.88827472000000     -2.09790178000000      2.61051846000000
  C   1.87483419000000     -2.35481342000000      0.51414978000000
  C   0.55483814000000     -2.86798527000000      0.43070850000000
  C   2.07975793000000     -1.85269102000000      1.87199913000000
  N   -0.95855883000000      0.01835171000000     -0.42568963000000
  C   -2.39692479000000      0.08497026000000      0.02406865000000
  C   -2.84525342000000      1.52997875000000      0.27755019000000
  H   -3.87507577000000      1.50025934000000      0.62951731000000
  H   -2.84137852000000      2.13279620000000     -0.64500795000000
  H   -2.24542765000000      2.00640397000000      1.06038713000000
  C   -3.35289689000000     -0.61476769000000     -0.94791637000000
  H   -2.43386562000000     -0.46362177000000      0.98364441000000
  H   -4.33070427000000     -0.67001051000000     -0.47395135000000
  H   -3.50895973000000     -0.05486332000000     -1.88122709000000
  H   -3.04015940000000     -1.63901668000000     -1.18668812000000
  C   -0.65215634000000      0.30881019000000     -1.64062156000000
  C   0.64773382000000      0.25610783000000     -2.24657464000000
  H   -1.49594411000000      0.54639457000000     -2.32095391000000
  C   1.93129431000000      0.39877873000000     -1.76399126000000
  C   2.92413706000000      0.05462388000000     -2.68332639000000
  S   0.73029681000000     -0.00260802000000     -3.95368935000000
  C   2.42321422000000     -0.08330776000000     -3.92168459000000
  H   2.12164436000000      0.75395465000000     -0.75949392000000
  H   3.96681712000000      0.08250321000000     -2.40466937000000
  H   3.01273168000000     -0.18097870000000     -4.82836221000000
  H   -1.02909787000000     -3.13826393000000      2.02114950000000
  H   0.71698388000000     -1.87398479000000      3.66998339000000
  H   3.00480207000000     -1.41628486000000      2.25959631000000
  O   1.54972315000000      1.43559907000000      0.79676300000000
  O   -0.09666448000000      1.04758401000000      2.08015373000000
  C   0.75771407000000      1.88275860000000      1.62422865000000
  C   0.70230041000000      3.29187788000000      2.18981838000000
  H   0.79850600000000      4.04459203000000      1.40784869000000
  H   1.53943800000000      3.46402145000000      2.87529007000000
  H   -0.21659023000000      3.50061853000000      2.75442627000000
  H   2.62140619000000     -2.37208847000000     -0.28853701000000
  H   0.08265133000000     -3.34952171000000     -0.43454655000000
