39
Coordinates from ORCA-job 1_13_orca
  Ir  0.47951470000000     -0.67120987000000      1.00256741000000
  C   -0.10576287000000     -2.66613653000000      1.65488272000000
  C   0.82990482000000     -2.09829710000000      2.61598900000000
  C   1.92720489000000     -2.34759047000000      0.56655091000000
  C   0.61774487000000     -2.86809173000000      0.40818183000000
  C   2.06538098000000     -1.84160439000000      1.93844586000000
  N   -0.96099115000000      0.00968371000000     -0.42125065000000
  C   -2.40015058000000      0.06530525000000      0.02387088000000
  C   -2.85012473000000      1.50406879000000      0.32725462000000
  H   -3.88389889000000      1.46632524000000      0.67413768000000
  H   -2.84230446000000      2.13905254000000     -0.57224641000000
  H   -2.25473198000000      1.95614161000000      1.12674500000000
  C   -3.36854263000000     -0.60237620000000     -0.96436871000000
  H   -2.43708972000000     -0.51268195000000      0.96407789000000
  H   -4.34539543000000     -0.66888976000000     -0.48252785000000
  H   -3.53255494000000     -0.01280928000000     -1.87641715000000
  H   -3.06418497000000     -1.62037613000000     -1.23821747000000
  C   -0.67960393000000      0.30991066000000     -1.64234819000000
  C   0.63184558000000      0.27482925000000     -2.26535887000000
  H   -1.49762080000000      0.54478703000000     -2.32181619000000
  C   1.90883276000000      0.40488723000000     -1.71998480000000
  C   2.93268101000000      0.06487673000000     -2.66699754000000
  S   0.72005018000000      0.00468247000000     -3.96031370000000
  C   2.41810396000000     -0.09478119000000     -3.94625402000000
  H   2.09382443000000      0.71409392000000     -0.77253808000000
  H   3.95679956000000      0.05826532000000     -2.38993897000000
  H   3.00315857000000     -0.17126563000000     -4.82031162000000
  H   -1.05656371000000     -3.15399214000000      1.91763641000000
  H   0.59696448000000     -1.87123146000000      3.66549268000000
  H   2.96739222000000     -1.40077809000000      2.38011230000000
  O   1.59504156000000      1.44598106000000      0.75149625000000
  O   -0.06248075000000      1.05872091000000      2.05183698000000
  C   0.75445405000000      1.90670515000000      1.62113761000000
  C   0.73385456000000      3.30494246000000      2.14890011000000
  H   0.80735763000000      4.06636039000000      1.37424803000000
  H   1.57312457000000      3.48142115000000      2.82686825000000
  H   -0.17935705000000      3.50225479000000      2.72898818000000
  H   2.71016432000000     -2.33314477000000     -0.21071333000000
  H   0.19019509000000     -3.34503549000000     -0.49239977000000
