39
Coordinates from ORCA-job 1_5_orca
  Ir  0.45703518000000     -0.64765341000000      1.04664503000000
  C   -0.02899453000000     -2.61974090000000      1.88745425000000
  C   1.10239047000000     -2.07720795000000      2.57235126000000
  C   1.64390672000000     -2.36098910000000      0.35309067000000
  C   0.34536314000000     -2.83261341000000      0.53464564000000
  C   2.11879697000000     -1.89255301000000      1.63554907000000
  N   -0.92360251000000      0.04091061000000     -0.40743326000000
  C   -2.36579767000000      0.16177364000000      0.01293421000000
  C   -2.81589970000000      1.60552886000000      0.09566909000000
  H   -3.84267563000000      1.62790747000000      0.47037545000000
  H   -2.81087162000000      2.09419879000000     -0.87570260000000
  H   -2.20940815000000      2.17969915000000      0.78785186000000
  C   -3.28426840000000     -0.65240598000000     -0.88767785000000
  H   -2.41184133000000     -0.26259614000000      1.00956713000000
  H   -4.27901515000000     -0.67488076000000     -0.43828412000000
  H   -3.40826830000000     -0.21851092000000     -1.88031069000000
  H   -2.95378207000000     -1.68191683000000     -0.99909490000000
  C   -0.61449479000000      0.29231737000000     -1.63274423000000
  C   0.71002193000000      0.21010376000000     -2.22328377000000
  H   -1.44953611000000      0.54740947000000     -2.29100144000000
  C   1.98459636000000      0.36409591000000     -1.72721158000000
  C   2.94787695000000      0.10837478000000     -2.68323559000000
  S   0.75032821000000     -0.04539110000000     -3.97039739000000
  C   2.45023801000000     -0.07361652000000     -3.94349991000000
  H   2.22557892000000      0.83453387000000     -0.81127712000000
  H   4.00821164000000      0.15367282000000     -2.48131568000000
  H   3.02068632000000     -0.23307503000000     -4.85198095000000
  H   -0.91197220000000     -3.01454189000000      2.36236543000000
  H   1.14825696000000     -1.89037204000000      3.62717184000000
  H   3.09285888000000     -1.48227793000000      1.81333539000000
  O   1.47545698000000      1.43293817000000      0.93879301000000
  O   -0.21550260000000      0.95652723000000      2.18528361000000
  C   0.63853333000000      1.82458804000000      1.77435941000000
  C   0.59572740000000      3.23651443000000      2.32464950000000
  H   0.76681001000000      3.95781417000000      1.52371781000000
  H   1.40570812000000      3.38281249000000      3.04542761000000
  H   -0.34520040000000      3.45824547000000      2.82228861000000
  H   2.24383555000000     -2.47425174000000     -0.52490541000000
  H   -0.26288249000000     -3.33552205000000     -0.19268273000000
