39
Coordinates from ORCA-job 1_8_orca
  Ir  0.45337060000000     -0.65333918000000      1.04037445000000
  C   -0.02972500000000     -2.61984821000000      1.89176755000000
  C   1.10535545000000     -2.07590170000000      2.57020823000000
  C   1.64102732000000     -2.35951637000000      0.35179493000000
  C   0.34294279000000     -2.83029348000000      0.53717324000000
  C   2.12072984000000     -1.89227041000000      1.63339576000000
  N   -0.92096935000000      0.04170535000000     -0.40449771000000
  C   -2.36202562000000      0.16153869000000      0.01156181000000
  C   -2.81581725000000      1.60615788000000      0.09360285000000
  H   -3.84314134000000      1.62991356000000      0.46891264000000
  H   -2.80965152000000      2.09364269000000     -0.87754436000000
  H   -2.20871080000000      2.18179578000000      0.78392345000000
  C   -3.28383982000000     -0.65296188000000     -0.88735123000000
  H   -2.41130538000000     -0.25951509000000      1.00813423000000
  H   -4.27929258000000     -0.67506785000000     -0.43757654000000
  H   -3.40666488000000     -0.22062231000000     -1.87987457000000
  H   -2.95265948000000     -1.68183019000000     -0.99692724000000
  C   -0.61460528000000      0.29151310000000     -1.62963447000000
  C   0.69155878000000      0.20885352000000     -2.23714427000000
  H   -1.44462496000000      0.54671213000000     -2.29002205000000
  C   1.98883250000000      0.37035674000000     -1.69760087000000
  C   2.95511473000000      0.11046739000000     -2.69889285000000
  S   0.75201396000000     -0.04543232000000     -3.96611347000000
  C   2.45299698000000     -0.07563462000000     -3.94587387000000
  H   2.22556531000000      0.82972929000000     -0.81964651000000
  H   4.01083427000000      0.15379903000000     -2.48134181000000
  H   3.01959943000000     -0.23356128000000     -4.85017371000000
  H   -0.91084967000000     -3.01181916000000      2.36529652000000
  H   1.15334649000000     -1.89057399000000      3.62883204000000
  H   3.09490023000000     -1.48271704000000      1.80843370000000
  O   1.47080200000000      1.43526826000000      0.94573504000000
  O   -0.21477147000000      0.95460004000000      2.18553852000000
  C   0.63687807000000      1.82621520000000      1.77786098000000
  C   0.59444878000000      3.23498328000000      2.32556976000000
  H   0.76652097000000      3.95691115000000      1.52486525000000
  H   1.40343918000000      3.38114027000000      3.04680886000000
  H   -0.34494813000000      3.45597149000000      2.82160317000000
  H   2.23914735000000     -2.47446233000000     -0.52815419000000
  H   -0.26754395000000     -3.33604207000000     -0.19164577000000
