39
Coordinates from ORCA-job 9_1_orca
  Ir  0.57999733000000     -0.77063546000000      0.48379447000000
  C   0.10597067000000     -2.90470093000000      0.97488372000000
  C   0.03016492000000     -2.22830588000000      2.21078481000000
  C   2.16632477000000     -1.95485733000000      1.33961428000000
  C   1.38788610000000     -2.78025366000000      0.41924024000000
  C   1.35900755000000     -1.67187244000000      2.42727715000000
  N   -1.13094960000000     -0.16173920000000     -0.53215858000000
  C   -2.51283101000000     -0.19471365000000      0.03221736000000
  C   -2.75146860000000      0.99611539000000      0.94718916000000
  H   -3.76199352000000      0.93540953000000      1.35945655000000
  H   -2.67261861000000      1.93112408000000      0.39623211000000
  H   -2.07690766000000      0.99713410000000      1.78587741000000
  C   -3.59984120000000     -0.29847994000000     -1.02693917000000
  H   -2.54813912000000     -1.08712506000000      0.62456430000000
  H   -4.55827562000000     -0.47182504000000     -0.51089060000000
  H   -3.72879071000000      0.61249836000000     -1.59733509000000
  H   -3.44722039000000     -1.13899890000000     -1.68828037000000
  C   -0.92799108000000      0.21170389000000     -1.75117041000000
  C   0.40165951000000      0.17208893000000     -2.30646441000000
  H   -1.73408424000000      0.51412010000000     -2.37920458000000
  C   1.44993015000000     -0.21785200000000     -1.46312688000000
  C   2.66760051000000     -0.26445093000000     -2.32355303000000
  S   0.79342542000000      0.39484930000000     -3.96513808000000
  C   2.42487095000000      0.05426211000000     -3.65560749000000
  H   2.20377840000000      1.37963947000000     -0.71342275000000
  H   3.64956788000000     -0.50602677000000     -1.97962548000000
  H   3.15205500000000      0.04782440000000     -4.44996103000000
  H   -0.63060945000000     -3.61724543000000      0.61219713000000
  H   -0.75004835000000     -2.23823818000000      2.93547564000000
  H   1.64335376000000     -1.18450588000000      3.33801425000000
  O   2.15206589000000      2.13183194000000      0.00361107000000
  O   0.45572543000000      1.19700169000000      1.27681656000000
  C   1.21419569000000      2.17285754000000      0.95124772000000
  C   1.01803294000000      3.50842976000000      1.72030053000000
  H   0.91633242000000      4.31929873000000      1.00642167000000
  H   1.91734341000000      3.70883356000000      2.30780273000000
  H   0.16428236000000      3.47287108000000      2.37905681000000
  H   3.21539053000000     -1.75355516000000      1.24300455000000
  H   1.76188900000000     -3.31473512000000     -0.43194269000000
