39
Coordinates from ORCA-job 9_4_orca
  Ir  0.61437541000000     -0.77084543000000      0.44216820000000
  C   0.09098662000000     -2.92216330000000      1.01912877000000
  C   0.08721287000000     -2.19607398000000      2.24070295000000
  C   2.18613035000000     -2.01597620000000      1.29318637000000
  C   1.36479154000000     -2.78521628000000      0.41416322000000
  C   1.38398197000000     -1.68470558000000      2.41672142000000
  N   -1.12882149000000     -0.16273044000000     -0.55122824000000
  C   -2.50100781000000     -0.17880308000000      0.02707092000000
  C   -2.76704848000000      1.02844445000000      0.91679166000000
  H   -3.78105675000000      0.97036459000000      1.31015327000000
  H   -2.68072428000000      1.95601453000000      0.34877983000000
  H   -2.08611906000000      1.06139202000000      1.76602209000000
  C   -3.59513209000000     -0.32150384000000     -1.02257264000000
  H   -2.53478994000000     -1.07753239000000      0.65629470000000
  H   -4.53893818000000     -0.48845510000000     -0.51686953000000
  H   -3.72352031000000      0.57924544000000     -1.62965024000000
  H   -3.42072617000000     -1.17439684000000     -1.68283555000000
  C   -0.91688191000000      0.21354317000000     -1.76108242000000
  C   0.40503754000000      0.15649173000000     -2.27453221000000
  H   -1.74840607000000      0.52358860000000     -2.38286349000000
  C   1.45244173000000     -0.21020412000000     -1.46250712000000
  C   2.63736078000000     -0.24562319000000     -2.29292748000000
  S   0.78181809000000      0.39331580000000     -3.95391310000000
  C   2.41564661000000      0.03087820000000     -3.63296558000000
  H   2.13156371000000      1.43697330000000     -0.55505788000000
  H   3.66154089000000     -0.48063514000000     -1.99440030000000
  H   3.13421275000000      0.04283707000000     -4.46413519000000
  H   -0.68641411000000     -3.58068613000000      0.66222630000000
  H   -0.70254516000000     -2.19898917000000      2.98020191000000
  H   1.73260173000000     -1.17165424000000      3.30240226000000
  O   2.11551487000000      2.12195064000000      0.01837701000000
  O   0.48704741000000      1.19967273000000      1.26302056000000
  C   1.21888356000000      2.13579783000000      0.94368608000000
  C   1.03361773000000      3.45326050000000      1.70613031000000
  H   0.91243961000000      4.31060694000000      1.02765756000000
  H   1.89952990000000      3.69671131000000      2.33465473000000
  H   0.15190305000000      3.46137343000000      2.38736385000000
  H   3.22991361000000     -1.79294096000000      1.16791084000000
  H   1.68108909000000     -3.31694280000000     -0.46624293000000
