39
Coordinates from ORCA-job 9_7_orca
  Ir  0.65459946000000     -0.79637013000000      0.43746027000000
  C   0.05673239000000     -2.91934175000000      1.11960781000000
  C   0.18118837000000     -2.15959494000000      2.30476495000000
  C   2.22334519000000     -2.11826156000000      1.19925651000000
  C   1.27076297000000     -2.83764161000000      0.37689305000000
  C   1.54007148000000     -1.69385130000000      2.35630811000000
  N   -1.11082287000000     -0.16655467000000     -0.55775737000000
  C   -2.47339554000000     -0.16018477000000      0.02626608000000
  C   -2.78436244000000      1.11448968000000      0.83162762000000
  H   -3.82434484000000      1.06466917000000      1.18117571000000
  H   -2.70516502000000      2.01465551000000      0.21512651000000
  H   -2.12944372000000      1.23347022000000      1.69488484000000
  C   -3.55524593000000     -0.38158967000000     -1.03573632000000
  H   -2.49942361000000     -1.01026293000000      0.71665738000000
  H   -4.50792653000000     -0.53882822000000     -0.52450342000000
  H   -3.70577196000000      0.47496929000000     -1.70030970000000
  H   -3.35385027000000     -1.26056646000000     -1.64921773000000
  C   -0.93059196000000      0.21634327000000     -1.77126802000000
  C   0.39383120000000      0.15483418000000     -2.27172718000000
  H   -1.75422056000000      0.54614261000000     -2.39028489000000
  C   1.45965015000000     -0.19381318000000     -1.44717706000000
  C   2.64443041000000     -0.22287566000000     -2.27446479000000
  S   0.76593874000000      0.36877151000000     -3.91019805000000
  C   2.38984165000000      0.00453168000000     -3.61216539000000
  H   2.00114652000000      1.35312276000000     -0.39099272000000
  H   3.66911284000000     -0.40776379000000     -2.01543370000000
  H   3.07120532000000      0.02051601000000     -4.45695088000000
  H   -0.82717325000000     -3.48296859000000      0.81360351000000
  H   -0.55253293000000     -2.08871966000000      3.09589864000000
  H   1.96905066000000     -1.14904804000000      3.18942748000000
  O   2.09034040000000      2.24858344000000      0.13434407000000
  O   0.51155264000000      1.12505773000000      1.24402571000000
  C   1.17462678000000      2.17006054000000      1.04304817000000
  C   1.00141832000000      3.41774793000000      1.76472239000000
  H   0.91197944000000      4.25463355000000      1.08333291000000
  H   1.85471822000000      3.64517131000000      2.39297789000000
  H   0.14843042000000      3.41317249000000      2.38295773000000
  H   3.25733350000000     -1.91457292000000      0.96075142000000
  H   1.46597788000000     -3.34177049000000     -0.55329626000000
