39
Coordinates from ORCA-job 9_8_orca
  Ir  0.63882917000000     -0.78540716000000      0.43717649000000
  C   0.07062450000000     -2.92294800000000      1.07778956000000
  C   0.14391036000000     -2.17288446000000      2.27802515000000
  C   2.20898752000000     -2.07698006000000      1.23802587000000
  C   1.31168518000000     -2.81374017000000      0.39309007000000
  C   1.47069140000000     -1.69066636000000      2.38361946000000
  N   -1.11829368000000     -0.16414254000000     -0.55823478000000
  C   -2.48372320000000     -0.16763158000000      0.02553462000000
  C   -2.77781271000000      1.07809887000000      0.86793137000000
  H   -3.80720664000000      1.02495554000000      1.23585623000000
  H   -2.69482155000000      1.99045105000000      0.27203696000000
  H   -2.11045896000000      1.16074157000000      1.72585880000000
  C   -3.57256417000000     -0.35616647000000     -1.02976027000000
  H   -2.51454842000000     -1.04035867000000      0.69228561000000
  H   -4.52104804000000     -0.51733228000000     -0.52132089000000
  H   -3.71355288000000      0.51971296000000     -1.67124703000000
  H   -3.38197833000000     -1.22427793000000     -1.66413375000000
  C   -0.92416476000000      0.21473105000000     -1.76644341000000
  C   0.39748201000000      0.15493627000000     -2.27247242000000
  H   -1.75277972000000      0.53682714000000     -2.38762520000000
  C   1.45856656000000     -0.20169987000000     -1.45657394000000
  C   2.63894390000000     -0.23119682000000     -2.28074022000000
  S   0.77239259000000      0.37944545000000     -3.92632808000000
  C   2.40087644000000      0.01356194000000     -3.61707528000000
  H   2.05345718000000      1.36581822000000     -0.47490645000000
  H   3.66574869000000     -0.43818715000000     -2.00838330000000
  H   3.09793333000000      0.03023226000000     -4.46184870000000
  H   -0.76802879000000     -3.52488217000000      0.74900497000000
  H   -0.61756122000000     -2.13572648000000      3.04766306000000
  H   1.86919632000000     -1.15840451000000      3.23848738000000
  O   2.10169448000000      2.22533983000000      0.10710742000000
  O   0.50605703000000      1.15770139000000      1.24825900000000
  C   1.18638448000000      2.15463078000000      1.00585501000000
  C   1.02020908000000      3.42442531000000      1.73199426000000
  H   0.91196285000000      4.27893216000000      1.06065755000000
  H   1.87277043000000      3.66788163000000      2.36836167000000
  H   0.15190158000000      3.43332008000000      2.38282132000000
  H   3.24616252000000     -1.86245172000000      1.04889826000000
  H   1.55692787000000     -3.33040889000000     -0.51672216000000
