38
Coordinates from ORCA-job reaction-1-ieip_optts_Compound_2_IRC_B
  Pd  0.51452741928493     -0.06863202393370     -0.15067217104065
  O   1.87755153460425      1.34429965523578      0.50192112997295
  C   1.48365564953186      2.46263087676731      0.81775002885513
  O   0.24989368207884      2.75317294128438      1.12181454397257
  C   2.40765094994097      3.63036403670340      0.86761760664798
  H   2.05866430549455      4.38064841873762      1.57233927822024
  H   2.43748419790235      4.08136925338467     -0.12598794927203
  H   3.41395070331991      3.30960449228348      1.12093960397638
  N   -1.03037197046890     -1.23126263916008     -0.88226678670760
  C   -0.77488176819597     -2.64735305584787     -0.57612141447662
  H   0.13903102440122     -2.96482188336327     -1.07171938781556
  H   -1.60813531896432     -3.26703712024519     -0.92466578885199
  H   -0.66042887635043     -2.78698213435851      0.49615314426689
  C   -1.24613457913060     -1.07086221199595     -2.32736096530480
  H   -1.32597927983331     -0.01643078428034     -2.58209284452823
  H   -2.16369083855187     -1.58945816156970     -2.62411042362929
  H   -0.40797482526235     -1.49103582895647     -2.87430908512396
  C   -1.84370289350061     -0.68244699129650      1.30233032495568
  C   -2.58495986977780     -1.24312032657401      2.32683801634161
  C   -2.09952000831885     -1.19574163011488      3.62784680905296
  C   -0.90197339108916     -0.55028633789877      3.88883979339142
  C   -0.14841796586510     -0.01215017268322      2.84816741057052
  C   -0.58225438269623     -0.11223757962231      1.52786711058517
  H   -0.53102844275432     -0.49650108205024      4.90460393273875
  H   0.80199435699865      0.45240568064711      3.08799834681533
  H   -3.51643058400874     -1.75223039774226      2.10892501181979
  H   -2.64477196470103     -1.68055156989218      4.42658618820813
  H   -0.30589107160964      1.94283202740868      1.12048573787603
  C   -2.22518910686378     -0.76119351763533     -0.13865301538317
  H   -2.48017304007328      0.22884903842630     -0.52742114753820
  H   -3.08023014881895     -1.41969487646266     -0.33232433221433
  O   1.68534025039343     -0.43751796876605     -1.79075206087641
  C   1.76882046366129      0.51516631611210     -2.64987820595272
  O   1.08774415503990      1.53071887317857     -2.64106142719396
  C   2.84277212985331      0.28925342074942     -3.70078903316112
  H   2.70750471503825      0.94401580825102     -4.55809276018933
  H   2.86689786851395     -0.74876372527342     -4.03156582325010
  H   3.81915998103880      0.49921231892105     -3.25911209447733
