38
Coordinates from ORCA-job reaction-1-ieip_optts_Compound_1
  Pd  0.55052160401772     -0.00330394315151     -0.19359948309355
  O   1.92719501796497      1.32993504175888      0.39088788616016
  C   1.43175089399564      2.42718390510795      0.78186612428739
  O   0.22451472703527      2.58913939627203      1.07132602646057
  C   2.37474177203344      3.59378047553529      0.87311302380109
  H   2.01922574745123      4.33495276953899      1.58411414812998
  H   2.43113186813766      4.06351455337797     -0.11028803733772
  H   3.37784897152990      3.26809363253435      1.13898336482405
  N   -1.01494141990585     -1.19005991517188     -0.87670752414192
  C   -0.77339535369755     -2.60440626853660     -0.55215522621423
  H   0.13525978765552     -2.93545552193689     -1.04979988587384
  H   -1.61002074525052     -3.22396861249514     -0.89357407637123
  H   -0.65206765065425     -2.73970841931242      0.52010156942941
  C   -1.24370105547027     -1.05787190828572     -2.32390035994323
  H   -1.32280329972153     -0.00859396748700     -2.59800257176990
  H   -2.16377499679409     -1.58029704106630     -2.60578990872708
  H   -0.41142091151522     -1.49217297224629     -2.86944587764531
  C   -1.84160605400795     -0.55635206630513      1.30484489022839
  C   -2.52728409161585     -1.24602324301094      2.29001906258780
  C   -2.05703674990544     -1.23781189336716      3.59785909360912
  C   -0.88194539311379     -0.57263008292024      3.90954393243638
  C   -0.19654709533030      0.11404950375710      2.91797274870871
  C   -0.67116566620795      0.16076372709083      1.60520409962517
  H   -0.50491944262905     -0.58399852884157      4.92358436394446
  H   0.70907643022198      0.64996151230102      3.17426993404160
  H   -3.41942978012446     -1.80823406605525      2.04114481381237
  H   -2.60078498931793     -1.76887650839486      4.36823563723975
  H   -0.35046157886744      1.34062336147667      1.14529060381461
  C   -2.19800984312087     -0.67296833993526     -0.14278086407268
  H   -2.44082552531098      0.30671657198633     -0.56226833351960
  H   -3.05887795229995     -1.33096718010560     -0.31150672476046
  O   1.69678658738432     -0.44840002687865     -1.76013425982838
  C   1.76125363934012      0.49556419902467     -2.64814713153780
  O   1.04823465479590      1.48127623476145     -2.67237992113616
  C   2.84772393651429      0.26802082862065     -3.68097971029394
  H   2.71091114631333      0.92318906762710     -4.53779693347188
  H   2.87685989656982     -0.76894607507620     -4.01359066751380
  H   3.81883291390014      0.48471179980929     -3.23233382588828
