27
Coordinates from ORCA-job 1_10_orca
  Pd  -2.23469674000000     -1.83535096000000      0.82230340000000
  Cl  -3.72987797000000     -3.22488955000000     -0.07308430000000
  Cl  -1.00190963000000     -4.01571210000000      1.53244129000000
  Cl  -3.74728549000000     -0.06390939000000      0.41149395000000
  N   -0.93769573000000     -0.21021200000000      1.45586382000000
  C   -1.24371050000000      0.35584520000000      2.60640262000000
  C   -0.73691236000000      1.58826529000000      3.02731370000000
  C   0.08072602000000      2.28009455000000      2.17599514000000
  C   -0.06987753000000      0.40080641000000      0.62490972000000
  C   0.42730518000000      1.70616203000000      0.94326155000000
  H   0.46838361000000      3.25755243000000      2.44957674000000
  H   -1.91989818000000     -0.19925773000000      3.23733689000000
  H   -1.02831626000000      1.98607673000000      3.98856866000000
  C   0.37665872000000     -0.31854783000000     -0.56250680000000
  C   1.27754617000000      2.40652661000000      0.03582345000000
  C   1.59644097000000      1.82442990000000     -1.13924354000000
  C   1.15049888000000      0.48525829000000     -1.45967208000000
  H   1.64410512000000      3.39798511000000      0.30261465000000
  H   2.24251120000000      2.37307224000000     -1.83642172000000
  C   0.14550578000000     -1.68423884000000     -0.85882404000000
  C   1.62466103000000     -0.05514491000000     -2.67474802000000
  C   0.48288736000000     -2.11613653000000     -2.12559627000000
  C   1.23913414000000     -1.32923205000000     -3.00350787000000
  H   2.27278920000000      0.52576973000000     -3.34266470000000
  H   1.63026776000000     -1.77913280000000     -3.90780664000000
  H   -0.20727197000000     -2.64579955000000     -0.19929893000000
  H   0.20209116000000     -3.10947257000000     -2.42776942000000
