27
Coordinates from ORCA-job 1_11_orca
  Pd  -2.22011402000000     -1.84370744000000      0.81807282000000
  Cl  -3.70257226000000     -3.24368520000000     -0.09227388000000
  Cl  -0.96455044000000     -4.03357553000000      1.48735324000000
  Cl  -3.77028594000000     -0.09831840000000      0.46938431000000
  N   -0.94007453000000     -0.20439894000000      1.45855706000000
  C   -1.25259302000000      0.36849751000000      2.60383373000000
  C   -0.74281745000000      1.60287941000000      3.02245823000000
  C   0.07976375000000      2.28797716000000      2.17313855000000
  C   -0.06934244000000      0.40292170000000      0.62849973000000
  C   0.42939372000000      1.70995583000000      0.94250356000000
  H   0.47178354000000      3.26619553000000      2.44560918000000
  H   -1.93030766000000     -0.18260272000000      3.23605574000000
  H   -1.03677839000000      2.00389132000000      3.98262372000000
  C   0.38077116000000     -0.32209441000000     -0.55793006000000
  C   1.28479051000000      2.40536143000000      0.03993382000000
  C   1.60551550000000      1.81914907000000     -1.13554635000000
  C   1.15394137000000      0.48377623000000     -1.45092515000000
  H   1.65835619000000      3.39619102000000      0.30560828000000
  H   2.25661950000000      2.36148421000000     -1.82883072000000
  C   0.13652885000000     -1.67951795000000     -0.85487618000000
  C   1.62570353000000     -0.05880652000000     -2.67275109000000
  C   0.46937544000000     -2.11746224000000     -2.13238264000000
  C   1.22897434000000     -1.32559825000000     -3.00202827000000
  H   2.28087533000000      0.51881347000000     -3.33068284000000
  H   1.61838272000000     -1.77944438000000     -3.90691080000000
  H   -0.21891724000000     -2.63746071000000     -0.20594745000000
  H   0.17139257000000     -3.10016643000000     -2.43890743000000
