27
Coordinates from ORCA-job 1_12_orca
  Pd  -2.23151132000000     -1.83717633000000      0.82137928000000
  Cl  -3.72391337000000     -3.22899523000000     -0.07727603000000
  Cl  -0.99374897000000     -4.01961415000000      1.52259235000000
  Cl  -3.75230966000000     -0.07142561000000      0.42413939000000
  N   -0.93821535000000     -0.20894221000000      1.45645212000000
  C   -1.24565078000000      0.35860894000000      2.60584148000000
  C   -0.73820225000000      1.59145756000000      3.02625308000000
  C   0.08051582000000      2.28181641000000      2.17537115000000
  C   -0.06976064000000      0.40126847000000      0.62569391000000
  C   0.42776140000000      1.70699074000000      0.94309597000000
  H   0.46912628000000      3.25944041000000      2.44871007000000
  H   -1.92217200000000     -0.19561965000000      3.23705704000000
  H   -1.03016471000000      1.98996811000000      3.98727006000000
  C   0.37755703000000     -0.31932253000000     -0.56150707000000
  C   1.27912860000000      2.40627209000000      0.03672131000000
  C   1.59842319000000      1.82327636000000     -1.13843594000000
  C   1.15125085000000      0.48493455000000     -1.45776142000000
  H   1.64721809000000      3.39759322000000      0.30326857000000
  H   2.24559299000000      2.37054097000000     -1.83476356000000
  C   0.14354488000000     -1.68320762000000     -0.85796168000000
  C   1.62488875000000     -0.05594474000000     -2.67431181000000
  C   0.47993585000000     -2.11642611000000     -2.12707867000000
  C   1.23691485000000     -1.32843829000000     -3.00318467000000
  H   2.27455552000000      0.52425022000000     -3.34004741000000
  H   1.62767162000000     -1.77920086000000     -3.90761096000000
  H   -0.20981574000000     -2.64397804000000     -0.20075122000000
  H   0.19538542000000     -3.10743976000000     -2.43020238000000
