27
Coordinates from ORCA-job 1_13_orca
  Pd  -2.22398910000000     -1.84148686000000      0.81919701000000
  Cl  -3.70982824000000     -3.23869061000000     -0.08717461000000
  Cl  -0.97447794000000     -4.02882866000000      1.49933454000000
  Cl  -3.76417401000000     -0.08917485000000      0.45400104000000
  N   -0.93944241000000     -0.20594365000000      1.45784138000000
  C   -1.25023266000000      0.36513540000000      2.60451637000000
  C   -0.74124828000000      1.59899598000000      3.02374848000000
  C   0.08001945000000      2.28588251000000      2.17389763000000
  C   -0.06948463000000      0.40235960000000      0.62754575000000
  C   0.42883873000000      1.70894770000000      0.94270498000000
  H   0.47088007000000      3.26389879000000      2.44666348000000
  H   -1.92754154000000     -0.18702848000000      3.23639618000000
  H   -1.03452974000000      1.99915743000000      3.98420348000000
  C   0.37967836000000     -0.32115197000000     -0.55914624000000
  C   1.28286546000000      2.40567106000000      0.03884156000000
  C   1.60310411000000      1.82055235000000     -1.13652881000000
  C   1.15302659000000      0.48417006000000     -1.45324948000000
  H   1.65456923000000      3.39666777000000      0.30481278000000
  H   2.25287048000000      2.36456351000000     -1.83084788000000
  C   0.13891430000000     -1.68077244000000     -0.85592525000000
  C   1.62542650000000     -0.05783352000000     -2.67328174000000
  C   0.47296598000000     -2.11710996000000     -2.13057929000000
  C   1.23167412000000     -1.32656386000000     -3.00242145000000
  H   2.27872660000000      0.52066197000000     -3.33386679000000
  H   1.62154094000000     -1.77936159000000     -3.90714885000000
  H   -0.21582273000000     -2.63967660000000     -0.20418073000000
  H   0.17955014000000     -3.10263936000000     -2.43594771000000
