27
Coordinates from ORCA-job 1_1_orca
  Pd  -2.32411102000000     -1.75569517000000      0.82544939000000
  Cl  -3.86076801000000     -3.13022975000000      0.01798993000000
  Cl  -1.15308773000000     -3.93299771000000      1.73211869000000
  Cl  -3.63334392000000      0.08834565000000      0.14382367000000
  N   -0.92494530000000     -0.23726574000000      1.44531520000000
  C   -1.20145329000000      0.28742243000000      2.61998714000000
  C   -0.70914340000000      1.51677088000000      3.04219206000000
  C   0.07628746000000      2.23034296000000      2.19316178000000
  C   -0.06161758000000      0.39007719000000      0.61338473000000
  C   0.42408753000000      1.69115409000000      0.94461101000000
  H   0.45135919000000      3.21248817000000      2.46474547000000
  H   -1.87073797000000     -0.27743874000000      3.24049105000000
  H   -0.98659542000000      1.89892393000000      4.01825092000000
  C   0.35736670000000     -0.24671832000000     -0.59224627000000
  C   1.23414564000000      2.40406019000000      0.02160137000000
  C   1.56155090000000      1.85944509000000     -1.16285484000000
  C   1.16704723000000      0.52506656000000     -1.51268066000000
  H   1.57058065000000      3.39649169000000      0.28450202000000
  H   2.16159591000000      2.41515139000000     -1.86717082000000
  C   0.10992968000000     -1.84998098000000     -0.77937670000000
  C   1.62323012000000     -0.05010449000000     -2.70780889000000
  C   0.55811251000000     -2.09922094000000     -2.13101128000000
  C   1.30784781000000     -1.34268265000000     -3.00440072000000
  H   2.21348516000000      0.54330583000000     -3.37998235000000
  H   1.68473141000000     -1.78239851000000     -3.92523290000000
  H   -0.12995201000000     -2.61719289000000     -0.18934286000000
  H   0.35706080000000     -3.13524101000000     -2.35646909000000
