27
Coordinates from ORCA-job 1_8_orca
  Pd  -2.12600941000000     -1.89763316000000      0.79077219000000
  Cl  -3.52636415000000     -3.36497656000000     -0.21610736000000
  Cl  -0.72346559000000     -4.14885110000000      1.19639282000000
  Cl  -3.91871154000000     -0.32036528000000      0.84296013000000
  N   -0.95542536000000     -0.16688637000000      1.47593699000000
  C   -1.30991333000000      0.45014492000000      2.58725631000000
  C   -0.78092392000000      1.69718670000000      2.99112511000000
  C   0.07355409000000      2.33884492000000      2.15470447000000
  C   -0.06588940000000      0.41657196000000      0.65166663000000
  C   0.44287139000000      1.73443784000000      0.93761220000000
  H   0.49372385000000      3.32197084000000      2.42000588000000
  H   -1.99748177000000     -0.07512529000000      3.22778829000000
  H   -1.09138588000000      2.11885171000000      3.94426008000000
  C   0.40730943000000     -0.34498104000000     -0.52839565000000
  C   1.33153940000000      2.39784236000000      0.06645866000000
  C   1.66407489000000      1.78507104000000     -1.11168776000000
  C   1.17615630000000      0.47421225000000     -1.39447976000000
  H   1.75032061000000      3.38461349000000      0.32492666000000
  H   2.34766258000000      2.28670482000000     -1.77984478000000
  C   0.07859928000000     -1.64905327000000     -0.82940001000000
  C   1.63243093000000     -0.08243551000000     -2.65986460000000
  C   0.38218087000000     -2.12601725000000     -2.17617621000000
  C   1.16341156000000     -1.30214873000000     -2.99248019000000
  H   2.33305645000000      0.47392362000000     -3.25336202000000
  H   1.54168660000000     -1.78145508000000     -3.90112979000000
  H   -0.29406602000000     -2.58364882000000     -0.24885143000000
  H   -0.02671034000000     -3.04011246000000     -2.51078276000000
