27
Coordinates from ORCA-job 1_9_orca
  Pd  -2.21260171000000     -1.84801229000000      0.81589342000000
  Cl  -3.68850569000000     -3.25336781000000     -0.10215943000000
  Cl  -0.94530480000000     -4.04277790000000      1.46412606000000
  Cl  -3.78213466000000     -0.11604425000000      0.49920662000000
  N   -0.94129998000000     -0.20140434000000      1.45994449000000
  C   -1.25716886000000      0.37501537000000      2.60251037000000
  C   -0.74585946000000      1.61040790000000      3.01995693000000
  C   0.07926804000000      2.29203790000000      2.17166697000000
  C   -0.06906678000000      0.40401139000000      0.63034912000000
  C   0.43046963000000      1.71191022000000      0.94211309000000
  H   0.47353502000000      3.27064803000000      2.44356529000000
  H   -1.93567013000000     -0.17402287000000      3.23539576000000
  H   -1.04113767000000      2.01306853000000      3.97956118000000
  C   0.38288970000000     -0.32392143000000     -0.55557235000000
  C   1.28852244000000      2.40476119000000      0.04205128000000
  C   1.61019025000000      1.81642864000000     -1.13364173000000
  C   1.15571477000000      0.48301274000000     -1.44641915000000
  H   1.66569765000000      3.39526680000000      0.30715045000000
  H   2.26388741000000      2.35551462000000     -1.82492020000000
  C   0.13190437000000     -1.67708598000000     -0.85284243000000
  C   1.62624057000000     -0.06069281000000     -2.67172237000000
  C   0.46241476000000     -2.11814518000000     -2.13587866000000
  C   1.22374051000000     -1.32372629000000     -3.00126605000000
  H   2.28504092000000      0.51522995000000     -3.32451037000000
  H   1.61226012000000     -1.77960490000000     -3.90644931000000
  H   -0.22491632000000     -2.63316494000000     -0.20937245000000
  H   0.15557814000000     -3.09537237000000     -2.44464519000000
