27
Coordinates from ORCA-job 9_2_orca
  Pd  -1.95273693000000     -1.50626583000000      0.44625493000000
  Cl  -3.07243607000000     -3.30305985000000     -0.48914481000000
  Cl  -0.06311581000000     -4.99021103000000      0.51084056000000
  Cl  -4.00918122000000     -1.14146574000000      1.73271369000000
  N   -1.06428235000000      0.10468794000000      1.37075899000000
  C   -1.40007925000000      0.68062092000000      2.51302718000000
  C   -0.85744392000000      1.89977749000000      2.93101124000000
  C   0.09442594000000      2.51215588000000      2.14649964000000
  C   -0.09460896000000      0.67047297000000      0.60283273000000
  C   0.49985369000000      1.89591064000000      0.95794640000000
  H   0.53702070000000      3.45010216000000      2.45120521000000
  H   -2.13801275000000      0.16494054000000      3.10396318000000
  H   -1.18715844000000      2.34686472000000      3.85816386000000
  C   0.29902502000000     -0.04424739000000     -0.57590131000000
  C   1.48285376000000      2.45789004000000      0.09037122000000
  C   1.84228924000000      1.82113481000000     -1.05233242000000
  C   1.27935989000000      0.55807460000000     -1.41890891000000
  H   1.93511456000000      3.40062250000000      0.35389622000000
  H   2.58436951000000      2.26400389000000     -1.69904418000000
  C   -0.37514843000000     -1.28871000000000     -0.82696212000000
  C   1.67473615000000     -0.12216667000000     -2.57369822000000
  C   0.09475679000000     -1.89312892000000     -2.02070174000000
  C   1.10085977000000     -1.34172178000000     -2.86851473000000
  H   2.41177387000000      0.31308664000000     -3.23113495000000
  H   1.42544742000000     -1.86693024000000     -3.77032525000000
  H   -0.67090058000000     -4.21971007000000     -0.16829641000000
  H   -0.37219639000000     -2.81848606000000     -2.37485885000000
