27
Coordinates from ORCA-job 9_6_orca
  Pd  -1.96428716000000     -1.46313118000000      0.40051988000000
  Cl  -2.98675636000000     -3.30225880000000     -0.52303351000000
  Cl  -0.08920890000000     -4.98346575000000      0.64298687000000
  Cl  -3.95781175000000     -1.03374879000000      1.64575697000000
  N   -1.03462504000000      0.08696501000000      1.36560347000000
  C   -1.38751517000000      0.64088623000000      2.51182901000000
  C   -0.83731361000000      1.85351972000000      2.93965505000000
  C   0.09045561000000      2.48736762000000      2.15074910000000
  C   -0.08003115000000      0.66133556000000      0.60520113000000
  C   0.50178171000000      1.88805929000000      0.95836112000000
  H   0.52901232000000      3.43582489000000      2.44225005000000
  H   -2.14188665000000      0.13054132000000      3.09620391000000
  H   -1.17243346000000      2.30077024000000      3.86617228000000
  C   0.29247219000000     -0.04253297000000     -0.57601325000000
  C   1.46877156000000      2.45675651000000      0.08018299000000
  C   1.82163112000000      1.81253055000000     -1.05418565000000
  C   1.26742603000000      0.54103172000000     -1.40402018000000
  H   1.91208109000000      3.40941574000000      0.35091071000000
  H   2.55557380000000      2.26956576000000     -1.71549231000000
  C   -0.35879182000000     -1.26987796000000     -0.86640943000000
  C   1.65796478000000     -0.12822001000000     -2.56748394000000
  C   0.09054342000000     -1.90219268000000     -2.02696320000000
  C   1.08359973000000     -1.34598943000000     -2.84599718000000
  H   2.40262443000000      0.32819886000000     -3.23376522000000
  H   1.40680305000000     -1.85423130000000     -3.73712536000000
  H   -0.71664524000000     -4.12912759000000     -0.15109402000000
  H   -0.33581708000000     -2.83824937000000     -2.36055143000000
