27
Coordinates from ORCA-job 9_7_orca
  Pd  -1.96206482000000     -1.44218308000000      0.37832803000000
  Cl  -2.95045051000000     -3.30412220000000     -0.54465487000000
  Cl  -0.12066444000000     -4.95298765000000      0.68755572000000
  Cl  -3.93844407000000     -0.98019329000000      1.60198971000000
  N   -1.03015834000000      0.07669821000000      1.36548638000000
  C   -1.37917922000000      0.62373309000000      2.51376661000000
  C   -0.82840358000000      1.83313032000000      2.94426186000000
  C   0.09111898000000      2.47425773000000      2.15467810000000
  C   -0.07565639000000      0.65482077000000      0.60719431000000
  C   0.50410595000000      1.88406648000000      0.95901014000000
  H   0.52265864000000      3.42750089000000      2.43986077000000
  H   -2.13968961000000      0.11264154000000      3.08890534000000
  H   -1.16459801000000      2.27545674000000      3.87185457000000
  C   0.29592885000000     -0.04280996000000     -0.58235014000000
  C   1.46200548000000      2.45775486000000      0.07654798000000
  C   1.81684109000000      1.81548522000000     -1.05574674000000
  C   1.27100628000000      0.54573460000000     -1.40672903000000
  H   1.89929746000000      3.41200973000000      0.34645991000000
  H   2.53707877000000      2.26875994000000     -1.72192719000000
  C   -0.36676202000000     -1.26919772000000     -0.86614366000000
  C   1.65614097000000     -0.12588915000000     -2.56860018000000
  C   0.09317206000000     -1.90448146000000     -2.02792428000000
  C   1.08627920000000     -1.33827398000000     -2.84239038000000
  H   2.38769065000000      0.32843708000000     -3.22721135000000
  H   1.40147209000000     -1.85700950000000     -3.73299113000000
  H   -0.72053625000000     -4.10688083000000     -0.11492924000000
  H   -0.32436589000000     -2.85474077000000     -2.35324816000000
