38
Coordinates from ORCA-job 10_2_orca
  C   -1.65647584000000      0.01920365000000      0.50921845000000
  C   -1.56986507000000      0.99168598000000      1.54781757000000
  C   -2.91529172000000      0.09293888000000     -0.18571616000000
  C   -3.87720610000000      1.08962939000000     -0.00889079000000
  C   -3.67589729000000      2.06065106000000      0.95828081000000
  C   -2.54692068000000      1.99066652000000      1.75203619000000
  H   -1.47940350000000     -3.10794270000000     -2.36871424000000
  H   -3.14061909000000     -0.66260187000000     -0.92706082000000
  H   -2.46663261000000      2.66865053000000      2.58464282000000
  H   -4.77348965000000      1.10042817000000     -0.61038401000000
  H   -4.41137225000000      2.83460461000000      1.12917890000000
  C   -0.44367632000000      1.02665729000000      2.60181816000000
  C   0.84427975000000      0.22603277000000      2.38006907000000
  H   -0.89023783000000      0.67874325000000      3.53460657000000
  H   -0.16239351000000      2.05195477000000      2.76181825000000
  C   1.60345418000000      0.65154543000000      1.15543375000000
  H   0.64443475000000     -0.83763677000000      2.34807911000000
  H   1.47305433000000      0.38518790000000      3.26485860000000
  C   1.27617032000000      0.11228000000000     -0.10092162000000
  C   2.02634977000000      0.52806108000000     -1.20138673000000
  C   3.00294958000000      1.51200598000000     -1.08875601000000
  C   2.63198221000000      1.58983330000000      1.26411706000000
  C   3.30742559000000      2.05585332000000      0.14364167000000
  H   1.87760064000000      0.06580675000000     -2.16273610000000
  H   3.56545394000000      1.80713045000000     -1.96841464000000
  H   2.94713385000000      1.92328650000000      2.24827486000000
  H   4.06191247000000      2.82574041000000      0.23770888000000
  Pd  -0.14454253000000     -1.34088421000000     -0.12959507000000
  Br  -1.64052203000000     -3.49455753000000      0.13536644000000
  P   1.56858239000000     -2.97641133000000     -0.39627034000000
  H   1.81797573000000     -3.73084252000000      0.76806295000000
  C   -0.11557429000000     -1.87119186000000     -3.68477147000000
  O   1.02092418000000     -1.73995454000000     -4.17471459000000
  O   -0.71150302000000     -3.03209124000000     -3.15944989000000
  O   -0.94108396000000     -0.81318147000000     -3.53318956000000
  H   2.88797956000000     -2.62646626000000     -0.65974940000000
  H   1.44438948000000     -4.06005615000000     -1.27508407000000
  H   -0.44194705000000      0.00898945000000     -3.68463645000000
