38
Coordinates from ORCA-job 10_4_orca
  C   -1.64862755000000      0.04107156000000      0.47001488000000
  C   -1.56608611000000      0.98395521000000      1.53115612000000
  C   -2.92000646000000      0.05803943000000     -0.15759009000000
  C   -3.91700708000000      1.02521957000000      0.05906168000000
  C   -3.72797640000000      2.02391623000000      1.00573135000000
  C   -2.56769294000000      1.96764730000000      1.74883015000000
  H   -1.34961780000000     -2.96286035000000     -2.49776273000000
  H   -3.17917833000000     -0.69698552000000     -0.89496319000000
  H   -2.45341793000000      2.70128343000000      2.57006552000000
  H   -4.85645142000000      1.01656258000000     -0.51328585000000
  H   -4.46733411000000      2.79675118000000      1.18566294000000
  C   -0.44506392000000      1.05070395000000      2.55855197000000
  C   0.83878945000000      0.24544050000000      2.35362362000000
  H   -0.87452994000000      0.73412375000000      3.51935576000000
  H   -0.14833982000000      2.10747494000000      2.69991568000000
  C   1.62143846000000      0.64398920000000      1.12795539000000
  H   0.61876582000000     -0.82948357000000      2.32013506000000
  H   1.45948356000000      0.39855688000000      3.23937289000000
  C   1.26562160000000      0.11800349000000     -0.12274649000000
  C   2.06365938000000      0.50770687000000     -1.21384627000000
  C   3.05010050000000      1.48607900000000     -1.09833176000000
  C   2.64478870000000      1.58145483000000      1.25156639000000
  C   3.34557404000000      2.03180758000000      0.14231245000000
  H   1.92741133000000      0.03435745000000     -2.18252684000000
  H   3.63139816000000      1.76756030000000     -1.96543246000000
  H   2.95703506000000      1.91075143000000      2.23934405000000
  H   4.10050466000000      2.80523059000000      0.23937729000000
  Pd  -0.22187117000000     -1.30196090000000     -0.08291619000000
  Br  -1.62960497000000     -3.48038482000000      0.08284622000000
  P   1.54890883000000     -2.97082961000000     -0.37205947000000
  H   1.77166173000000     -3.71976789000000      0.80665042000000
  C   -0.14133313000000     -1.86456516000000     -3.64974280000000
  O   0.95535758000000     -1.79090936000000     -4.12005204000000
  O   -0.74720864000000     -2.95913013000000     -3.09671303000000
  O   -0.90278136000000     -0.77066761000000     -3.56030972000000
  H   2.90735199000000     -2.64681503000000     -0.61006886000000
  H   1.44247537000000     -4.06758093000000     -1.25114174000000
  H   -0.38845817000000      0.03352157000000     -3.75179673000000
