38
Coordinates from ORCA-job 10_5_orca
  C   -1.66708123000000      0.07719185000000      0.45467754000000
  C   -1.55603418000000      0.98754020000000      1.51754724000000
  C   -2.92546191000000      0.03676031000000     -0.14495474000000
  C   -3.94356661000000      0.97180034000000      0.10863141000000
  C   -3.76194917000000      1.99004258000000      1.04105639000000
  C   -2.57777391000000      1.94298397000000      1.74918727000000
  H   -1.38259052000000     -2.83215077000000     -2.46527991000000
  H   -3.20313177000000     -0.72376836000000     -0.87063164000000
  H   -2.43958810000000      2.71752616000000      2.55193736000000
  H   -4.90984818000000      0.94889767000000     -0.43739721000000
  H   -4.50945255000000      2.76701171000000      1.22731967000000
  C   -0.44430906000000      1.06728862000000      2.52268210000000
  C   0.83491655000000      0.26040655000000      2.33264225000000
  H   -0.86182726000000      0.77722936000000      3.50715578000000
  H   -0.13921703000000      2.14569108000000      2.65261155000000
  C   1.62889784000000      0.64305615000000      1.10868136000000
  H   0.59875600000000     -0.82094160000000      2.30151601000000
  H   1.45011716000000      0.40864277000000      3.22187206000000
  C   1.25339434000000      0.12115894000000     -0.13487143000000
  C   2.08272894000000      0.49113972000000     -1.22072971000000
  C   3.08596771000000      1.46011860000000     -1.10355522000000
  C   2.65879219000000      1.57113946000000      1.24191163000000
  C   3.37151356000000      2.01503016000000      0.14011234000000
  H   1.96302530000000      0.01221070000000     -2.19788963000000
  H   3.68054467000000      1.73892289000000     -1.96487153000000
  H   2.96042704000000      1.90413905000000      2.23244588000000
  H   4.13054330000000      2.78717944000000      0.24114265000000
  Pd  -0.25839996000000     -1.28030849000000     -0.05233140000000
  Br  -1.62465199000000     -3.46538607000000      0.04533914000000
  P   1.52522177000000     -2.96190059000000     -0.35171592000000
  H   1.73592832000000     -3.70912706000000      0.83290031000000
  C   -0.16440579000000     -1.85489055000000     -3.59218685000000
  O   0.88517923000000     -1.85921268000000     -4.07192988000000
  O   -0.60208774000000     -2.88770302000000     -3.22224573000000
  O   -0.88743078000000     -0.73720623000000     -3.57806377000000
  H   2.92031262000000     -2.66241516000000     -0.57366999000000
  H   1.44191758000000     -4.07100437000000     -1.23225786000000
  H   -0.35032492000000      0.03731765000000     -3.80105075000000
