9
Coordinates from ORCA-job 1_1_orca
  Pt  -1.21831587000000     -1.00582476000000      0.61897299000000
  Cl  -0.30139765000000     -0.81582237000000      2.73325304000000
  Cl  -2.75071238000000     -2.48985150000000      1.18253344000000
  Cl  -1.88637468000000     -0.92358678000000     -1.58703569000000
  C   1.25238256000000      0.95493563000000     -0.41162948000000
  H   1.44696174000000      2.08469765000000     -0.35548276000000
  H   1.23603045000000      0.51691858000000      0.21217565000000
  H   1.97381928000000      0.65174842000000     -1.26122406000000
  H   0.24692626000000      1.02439980000000     -1.13045836000000
