9
Coordinates from ORCA-job 1_4_orca
  Pt  -1.21482193000000     -1.00143263000000      0.61666160000000
  Cl  -0.30094041000000     -0.81384505000000      2.72893441000000
  Cl  -2.75375180000000     -2.49160128000000      1.18609897000000
  Cl  -1.88388165000000     -0.92465374000000     -1.58774525000000
  C   1.22236169000000      1.04889169000000     -0.59254242000000
  H   1.44837571000000      2.06391238000000     -0.34272007000000
  H   1.23259016000000      0.45131821000000      0.32396589000000
  H   1.96650278000000      0.65190647000000     -1.24417092000000
  H   0.28259855000000      1.01293378000000     -1.08706371000000
