27
Coordinates from ORCA-job 0_0_orca
  Pd  -2.44659000000000     -1.63153000000000      0.80274000000000
  Cl  -4.22706000000000     -2.91186000000000      0.21375000000000
  Cl  -1.45858000000000     -3.37397000000000      1.98667000000000
  Cl  -3.29440000000000      0.23608000000000     -0.27989000000000
  N   -0.89211000000000     -0.34937000000000      1.43289000000000
  C   -1.13275000000000      0.12091000000000      2.64055000000000
  C   -0.64559000000000      1.34875000000000      3.08813000000000
  C   0.07284000000000      2.11701000000000      2.21172000000000
  C   -0.05529000000000      0.31409000000000      0.60825000000000
  C   0.38803000000000      1.60936000000000      0.94569000000000
  H   0.41138000000000      3.10960000000000      2.48430000000000
  H   -1.76317000000000     -0.48641000000000      3.27593000000000
  H   -0.88378000000000      1.68983000000000      4.08535000000000
  C   0.42302000000000     -0.29522000000000     -0.61300000000000
  C   1.11689000000000      2.38290000000000     -0.00745000000000
  C   1.42729000000000      1.87043000000000     -1.21530000000000
  C   1.12571000000000      0.51081000000000     -1.53579000000000
  H   1.39438000000000      3.39699000000000      0.25347000000000
  H   1.95329000000000      2.46988000000000     -1.94848000000000
  C   0.30207000000000     -1.67043000000000     -0.87804000000000
  C   1.58287000000000     -0.04969000000000     -2.73988000000000
  C   0.78299000000000     -2.19968000000000     -2.05187000000000
  C   1.40292000000000     -1.38412000000000     -3.00326000000000
  H   2.09782000000000      0.58561000000000     -3.45071000000000
  H   1.76277000000000     -1.80931000000000     -3.93149000000000
  H   -0.12550000000000     -2.33908000000000     -0.14383000000000
  H   0.68054000000000     -3.26158000000000     -2.23046000000000
