9
Coordinates from ORCA-job 7_4_orca
  Pt  -0.83476149000000     -0.82347794000000      0.48156713000000
  Cl  -0.19962679000000     -0.41483261000000      2.68094067000000
  Cl  -2.61282134000000     -2.10845685000000      1.13383623000000
  Cl  -1.43909392000000     -1.14434804000000     -1.74528871000000
  C   0.96223480000000      0.89792140000000     -0.49671247000000
  H   1.43138449000000      1.70678122000000      0.08089405000000
  H   1.15094081000000     -0.23814197000000      0.16908033000000
  H   1.53677488000000      0.73591645000000     -1.41376569000000
  H   0.00274398000000      1.38858593000000     -0.89015182000000
