30
Coordinates from ORCA-job 2_1_orca
  Lu  0.05061574000000     -0.33244310000000      0.26623676000000
  C   0.52914774000000      0.51206975000000      2.65713047000000
  C   1.66137854000000     -0.24000298000000      2.27813144000000
  C   2.34053796000000      0.46128403000000      1.26471791000000
  C   1.60812091000000      1.63101556000000      0.98273031000000
  C   0.49817526000000      1.67144108000000      1.85330145000000
  H   1.87027730000000      2.39480299000000      0.26203780000000
  H   -0.17475358000000      2.49885271000000      1.97502680000000
  H   -0.15041762000000      0.28191452000000      3.45703036000000
  H   1.97052598000000     -1.17938408000000      2.72080957000000
  H   3.26978955000000      0.17146608000000      0.80498415000000
  C   0.67359149000000     -0.13473926000000     -2.26071591000000
  C   -0.50735889000000     -0.91176177000000     -2.19846752000000
  C   1.17202929000000     -2.12191133000000     -1.25992449000000
  C   1.71945433000000     -0.89716724000000     -1.69469065000000
  H   0.76721045000000      0.82867450000000     -2.72686765000000
  C   -0.19827083000000     -2.14001900000000     -1.58146824000000
  H   -1.45368380000000     -0.66118417000000     -2.65419890000000
  H   2.75307924000000     -0.60864892000000     -1.63350702000000
  H   1.72281067000000     -2.93236664000000     -0.79391841000000
  H   -0.87583523000000     -2.95599735000000     -1.44401962000000
  C   -1.96607032000000     -1.36624123000000      1.11971189000000
  H   -2.36726829000000     -1.01216738000000      2.10656665000000
  H   -1.98075327000000     -2.46694443000000      1.21345677000000
  H   -2.80072992000000     -1.19482130000000      0.39855708000000
  C   -2.02024050000000      2.10320212000000     -0.98729204000000
  H   -2.30982622000000      1.17868023000000     -0.12520471000000
  H   -0.93088467000000      2.59045015000000     -1.21626230000000
  H   -2.56707483000000      3.03328263000000     -0.76732970000000
  H   -2.30456798000000      1.79853782000000     -1.99965287000000
