30
Coordinates from ORCA-job 2_2_orca
  Lu  0.00712532000000     -0.33358209000000      0.27005450000000
  C   0.52669987000000      0.54968391000000      2.64923189000000
  C   1.63784825000000     -0.23593487000000      2.27495060000000
  C   2.33451229000000      0.45061987000000      1.26035313000000
  C   1.63835753000000      1.63952556000000      0.98341768000000
  C   0.52005800000000      1.69828413000000      1.84245558000000
  H   1.91181305000000      2.39034768000000      0.25623883000000
  H   -0.15384669000000      2.53606713000000      1.94626654000000
  H   -0.16997595000000      0.32019789000000      3.44121112000000
  H   1.93065534000000     -1.17396120000000      2.72010131000000
  H   3.26887537000000      0.14552859000000      0.81279571000000
  C   0.69922167000000     -0.13555394000000     -2.27777909000000
  C   -0.49155687000000     -0.89548446000000     -2.22557578000000
  C   1.16116727000000     -2.11405793000000     -1.25011444000000
  C   1.72031373000000     -0.89487067000000     -1.68946941000000
  H   0.80610471000000      0.83717696000000     -2.74291509000000
  C   -0.20456652000000     -2.11726331000000     -1.59787315000000
  H   -1.43637472000000     -0.63030948000000     -2.68070003000000
  H   2.76579864000000     -0.61906530000000     -1.62333914000000
  H   1.69836574000000     -2.92527992000000     -0.78526487000000
  H   -0.89872253000000     -2.93000836000000     -1.45181034000000
  C   -1.95330391000000     -1.38171370000000      1.11878893000000
  H   -2.35170646000000     -1.04877257000000      2.10906593000000
  H   -1.95529215000000     -2.48577274000000      1.21656313000000
  H   -2.82146645000000     -1.23011566000000      0.42947429000000
  C   -2.05174615000000      2.02497081000000     -0.91142548000000
  H   -2.26427597000000      1.27262115000000     -0.20703021000000
  H   -0.97047878000000      2.52435885000000     -1.17602934000000
  H   -2.57370961000000      2.98876399000000     -0.72047332000000
  H   -2.33112525000000      1.77219843000000     -1.95704016000000
