30
Coordinates from ORCA-job 2_3_orca
  Lu  0.00983269000000     -0.33380451000000      0.26937069000000
  C   0.52615543000000      0.55350762000000      2.64734824000000
  C   1.63480991000000     -0.23647747000000      2.27537836000000
  C   2.33238504000000      0.45063049000000      1.25958109000000
  C   1.64069859000000      1.63986810000000      0.98079252000000
  C   0.52320418000000      1.70005268000000      1.84218217000000
  H   1.91784935000000      2.38957146000000      0.25596093000000
  H   -0.15263425000000      2.54177669000000      1.94180464000000
  H   -0.17331753000000      0.32505992000000      3.43951436000000
  H   1.92539298000000     -1.17338451000000      2.72036415000000
  H   3.26830798000000      0.14130885000000      0.81290131000000
  C   0.70096737000000     -0.13663504000000     -2.27796060000000
  C   -0.49048357000000     -0.89303492000000     -2.22966534000000
  C   1.16198140000000     -2.11334214000000     -1.24737344000000
  C   1.71876735000000     -0.89462151000000     -1.68810772000000
  H   0.81153240000000      0.83852629000000     -2.74517148000000
  C   -0.20494443000000     -2.11142455000000     -1.60176158000000
  H   -1.43380890000000     -0.62594054000000     -2.68328485000000
  H   2.76692613000000     -0.62014697000000     -1.62112616000000
  H   1.69498726000000     -2.92427580000000     -0.78376473000000
  H   -0.90311538000000     -2.92790337000000     -1.45167609000000
  C   -1.96636724000000     -1.38289967000000      1.12436736000000
  H   -2.34400933000000     -1.05496718000000      2.10107779000000
  H   -1.94884650000000     -2.48497743000000      1.21531514000000
  H   -2.81793699000000     -1.23423886000000      0.43739333000000
  C   -2.02066464000000      2.06290391000000     -0.94095629000000
  H   -2.25887320000000      1.27275367000000     -0.20645899000000
  H   -1.00463420000000      2.49283521000000     -1.15464330000000
  H   -2.57650120000000      2.97259944000000     -0.71031847000000
  H   -2.33834165000000      1.76403541000000     -1.94290397000000
