30
Coordinates from ORCA-job 2_4_orca
  Lu  0.00344158000000     -0.33485035000000      0.27020473000000
  C   0.52410293000000      0.55938916000000      2.64802888000000
  C   1.62898550000000     -0.23386285000000      2.27334471000000
  C   2.33215861000000      0.44692314000000      1.25835839000000
  C   1.64622378000000      1.64086276000000      0.98000658000000
  C   0.52682122000000      1.71008403000000      1.83890276000000
  H   1.92863083000000      2.38886535000000      0.25443439000000
  H   -0.14710110000000      2.54930131000000      1.93406453000000
  H   -0.17778161000000      0.33480905000000      3.43455927000000
  H   1.91596209000000     -1.17322174000000      2.72103436000000
  H   3.26651179000000      0.13475802000000      0.81458313000000
  C   0.70551818000000     -0.13192231000000     -2.28343045000000
  C   -0.48813015000000     -0.88818867000000     -2.23704475000000
  C   1.15738236000000     -2.10911059000000     -1.24573574000000
  C   1.72363370000000     -0.89488937000000     -1.68487975000000
  H   0.82121550000000      0.83824775000000     -2.74799984000000
  C   -0.20794825000000     -2.11058122000000     -1.60469586000000
  H   -1.42953322000000     -0.61801385000000     -2.68916325000000
  H   2.76732428000000     -0.62272032000000     -1.61817968000000
  H   1.68993687000000     -2.92398407000000     -0.78049141000000
  H   -0.90740543000000     -2.91931539000000     -1.45337330000000
  C   -1.96583625000000     -1.38836303000000      1.12362168000000
  H   -2.33909639000000     -1.06257485000000      2.10212613000000
  H   -1.94035998000000     -2.48747186000000      1.21503043000000
  H   -2.82213930000000     -1.24168113000000      0.44526376000000
  C   -2.02207230000000      2.06448472000000     -0.94404150000000
  H   -2.24647099000000      1.28567037000000     -0.21669530000000
  H   -1.01691056000000      2.46881307000000     -1.13744043000000
  H   -2.58048793000000      2.95958059000000     -0.69625454000000
  H   -2.34695338000000      1.75524380000000     -1.93007506000000
