30
Coordinates from ORCA-job 2_5_orca
  Lu  -0.01744140000000     -0.33955636000000      0.27300991000000
  C   0.51707512000000      0.59172887000000      2.64149089000000
  C   1.60462688000000     -0.22706674000000      2.26816293000000
  C   2.32694712000000      0.43419643000000      1.25374337000000
  C   1.66792782000000      1.64473559000000      0.97447645000000
  C   0.54598371000000      1.74221940000000      1.82784970000000
  H   1.97613361000000      2.38532552000000      0.24841679000000
  H   -0.12602744000000      2.58548804000000      1.89992231000000
  H   -0.20033309000000      0.37594877000000      3.41632898000000
  H   1.87425416000000     -1.17056899000000      2.72325159000000
  H   3.25914735000000      0.10479261000000      0.82028943000000
  C   0.72782433000000     -0.12395474000000     -2.29792840000000
  C   -0.47342454000000     -0.87013042000000     -2.26596754000000
  C   1.14171356000000     -2.09667461000000     -1.23592002000000
  C   1.72867628000000     -0.89165589000000     -1.67518926000000
  H   0.86397823000000      0.84206173000000     -2.76301063000000
  C   -0.21761836000000     -2.09421153000000     -1.62151276000000
  H   -1.41331314000000     -0.58237857000000     -2.71541220000000
  H   2.77419899000000     -0.63252521000000     -1.60345618000000
  H   1.66586145000000     -2.91989479000000     -0.76700727000000
  H   -0.92944870000000     -2.88602262000000     -1.45928747000000
  C   -1.96545766000000     -1.41029354000000      1.12168740000000
  H   -2.31583628000000     -1.09407772000000      2.10736327000000
  H   -1.90070031000000     -2.49921338000000      1.21230209000000
  H   -2.84096971000000     -1.27251323000000      0.47822018000000
  C   -2.03375391000000      2.07813676000000     -0.96259165000000
  H   -2.19217321000000      1.32555111000000     -0.24659429000000
  H   -1.05243354000000      2.36723529000000     -1.06193406000000
  H   -2.60407459000000      2.91017082000000     -0.63306378000000
  H   -2.38988891000000      1.71365376000000     -1.88552737000000
