30
Coordinates from ORCA-job 2_7_orca
  Lu  -0.00470931000000     -0.34124827000000      0.27079707000000
  C   0.51054992000000      0.60003985000000      2.63632847000000
  C   1.59604418000000     -0.22463377000000      2.26779039000000
  C   2.32338248000000      0.43085184000000      1.25379728000000
  C   1.67050626000000      1.64275738000000      0.96606185000000
  C   0.55033648000000      1.75187151000000      1.82173129000000
  H   1.99539388000000      2.38323259000000      0.24761652000000
  H   -0.11739186000000      2.59792063000000      1.88542503000000
  H   -0.21006465000000      0.39278700000000      3.40897811000000
  H   1.85763400000000     -1.16971747000000      2.72533714000000
  H   3.25201530000000      0.09137326000000      0.82023753000000
  C   0.73316550000000     -0.11792891000000     -2.29780842000000
  C   -0.47107687000000     -0.86195234000000     -2.27440777000000
  C   1.13579687000000     -2.09366359000000     -1.23288417000000
  C   1.72969225000000     -0.89103869000000     -1.66998260000000
  H   0.88105894000000      0.84130739000000     -2.76832747000000
  C   -0.22047304000000     -2.08642246000000     -1.62709130000000
  H   -1.40644632000000     -0.56762255000000     -2.72501920000000
  H   2.77359453000000     -0.63510583000000     -1.59418828000000
  H   1.65546246000000     -2.91765753000000     -0.75977974000000
  H   -0.93813422000000     -2.87160113000000     -1.46094744000000
  C   -1.96722396000000     -1.41501335000000      1.12202713000000
  H   -2.30316614000000     -1.10072900000000      2.11579465000000
  H   -1.87869491000000     -2.50558100000000      1.20659463000000
  H   -2.85096913000000     -1.28051423000000      0.48660580000000
  C   -2.05806671000000      2.08565397000000     -0.97227256000000
  H   -2.17662574000000      1.29452370000000     -0.21877827000000
  H   -1.00684491000000      2.34584500000000     -1.03875379000000
  H   -2.63004953000000      2.91667984000000     -0.60393602000000
  H   -2.42092845000000      1.69043364000000     -1.90152403000000
