30
Coordinates from ORCA-job 2_8_orca
  Lu  0.01124606000000     -0.34300019000000      0.26615883000000
  C   0.49788178000000      0.62341223000000      2.62211143000000
  C   1.57668616000000     -0.21963129000000      2.26865564000000
  C   2.31540761000000      0.42289262000000      1.25404658000000
  C   1.68042912000000      1.63997696000000      0.95149481000000
  C   0.56099523000000      1.76883375000000      1.80617696000000
  H   2.03604005000000      2.37800224000000      0.24573090000000
  H   -0.09787465000000      2.62627809000000      1.85484885000000
  H   -0.23163253000000      0.42974097000000      3.39319306000000
  H   1.82044538000000     -1.16619916000000      2.72880043000000
  H   3.23789678000000      0.06273505000000      0.82077551000000
  C   0.74838486000000     -0.11034625000000     -2.29772056000000
  C   -0.46238213000000     -0.84394211000000     -2.29060830000000
  C   1.12494395000000     -2.08898347000000     -1.22737372000000
  C   1.72822904000000     -0.88914433000000     -1.66088916000000
  H   0.91806081000000      0.84211171000000     -2.78098462000000
  C   -0.22743213000000     -2.06553543000000     -1.63940070000000
  H   -1.39116112000000     -0.53586767000000     -2.74739799000000
  H   2.77546890000000     -0.64074636000000     -1.57431974000000
  H   1.63103851000000     -2.91121306000000     -0.74484679000000
  H   -0.95808452000000     -2.84146721000000     -1.46584404000000
  C   -1.96547715000000     -1.42245608000000      1.12346565000000
  H   -2.27627463000000     -1.11888165000000      2.13223567000000
  H   -1.83600338000000     -2.51780912000000      1.19424098000000
  H   -2.87302342000000     -1.30025312000000      0.50775236000000
  C   -2.07068255000000      2.05972054000000     -0.95105128000000
  H   -2.14857585000000      1.26410337000000     -0.19812057000000
  H   -0.97725445000000      2.30082492000000     -1.00284591000000
  H   -2.66646399000000      2.91218340000000     -0.55402786000000
  H   -2.47242454000000      1.65834640000000     -1.90893293000000
