38
Coordinates from ORCA-job 5_0_orca
  Pd  0.39250341000000      0.14405252000000     -0.21845982000000
  O   1.96409183000000      1.35294169000000      0.61118844000000
  C   1.86137437000000      2.55860008000000      0.41440519000000
  O   0.75886675000000      3.02352511000000     -0.09250776000000
  C   2.95595118000000      3.54205815000000      0.68865528000000
  H   2.60964630000000      4.46862487000000      1.14418256000000
  H   3.41328000000000      3.80315132000000     -0.26750418000000
  H   3.70777307000000      3.07985844000000      1.32071983000000
  N   -1.28358528000000     -0.94001107000000     -0.90320658000000
  C   -0.93926433000000     -2.30271936000000     -1.35683166000000
  H   -0.17380432000000     -2.29393628000000     -2.12195309000000
  H   -1.78350193000000     -2.81609658000000     -1.83808183000000
  H   -0.53690573000000     -2.86526770000000     -0.52114312000000
  C   -1.83723968000000     -0.24896374000000     -2.07773493000000
  H   -1.99319215000000      0.80366553000000     -1.86136281000000
  H   -2.79291940000000     -0.68253223000000     -2.40314934000000
  H   -1.18852299000000     -0.32057459000000     -2.94459346000000
  C   -1.79570380000000     -1.14788470000000      1.48950786000000
  C   -2.34667866000000     -1.94569446000000      2.47972615000000
  C   -2.00463660000000     -1.82809107000000      3.81222415000000
  C   -1.08610806000000     -0.87444219000000      4.18638783000000
  C   -0.60977126000000     -0.01645006000000      3.21323119000000
  C   -1.05499997000000     -0.05558092000000      1.90081343000000
  H   -0.79994330000000     -0.75548869000000      5.22303724000000
  H   -0.01090588000000      0.79457351000000      3.60378531000000
  H   -3.11962854000000     -2.67440359000000      2.26147863000000
  H   -2.44025242000000     -2.44467547000000      4.58664699000000
  H   -0.99151412000000      3.88303631000000      0.82877097000000
  C   -2.36164834000000     -1.06215571000000      0.11059341000000
  H   -3.04898792000000     -0.20828816000000      0.06071535000000
  H   -3.03697261000000     -1.91350292000000     -0.05978915000000
  O   1.46820707000000      0.57426705000000     -1.90157048000000
  C   2.18922773000000     -0.29472918000000     -2.50230081000000
  O   2.15644403000000     -1.45058992000000     -2.11457906000000
  C   3.22069316000000      0.19501091000000     -3.49817079000000
  H   3.57357202000000     -0.63236186000000     -4.11121716000000
  H   4.08895760000000      0.58150836000000     -2.95916580000000
  H   2.87609162000000      0.96956657000000     -4.18273517000000
