38
Coordinates from ORCA-job 5_2_orca
  Pd  0.38916897000000      0.15449784000000     -0.20472469000000
  O   1.96351454000000      1.33982014000000      0.61382124000000
  C   1.83599461000000      2.57575332000000      0.40992750000000
  O   0.75011376000000      3.01890987000000     -0.09148203000000
  C   2.95138555000000      3.54342726000000      0.68625748000000
  H   2.59528606000000      4.47183620000000      1.13958233000000
  H   3.40339841000000      3.81020433000000     -0.27088986000000
  H   3.70300618000000      3.09158394000000      1.31833144000000
  N   -1.29154934000000     -0.93770583000000     -0.91511332000000
  C   -0.94738655000000     -2.29047182000000     -1.37856378000000
  H   -0.19414497000000     -2.26760246000000     -2.14881761000000
  H   -1.80278574000000     -2.79400936000000     -1.84978606000000
  H   -0.54276871000000     -2.85994302000000     -0.55375595000000
  C   -1.84866534000000     -0.22594095000000     -2.06875821000000
  H   -2.00303660000000      0.81914959000000     -1.83514350000000
  H   -2.80280142000000     -0.65824876000000     -2.38936902000000
  H   -1.19631667000000     -0.28694409000000     -2.93120000000000
  C   -1.79717761000000     -1.13619574000000      1.48932501000000
  C   -2.31620391000000     -1.96524299000000      2.47430479000000
  C   -1.97455666000000     -1.83833581000000      3.80940368000000
  C   -1.08532668000000     -0.87165911000000      4.18488787000000
  C   -0.63426832000000      0.00817421000000      3.22023856000000
  C   -1.05213081000000     -0.05459734000000      1.89693905000000
  H   -0.80022583000000     -0.75155124000000      5.22314701000000
  H   -0.05087713000000      0.81493829000000      3.60811509000000
  H   -3.06768462000000     -2.69712120000000      2.25007942000000
  H   -2.39691520000000     -2.46492360000000      4.57640244000000
  H   -1.00758785000000      3.87198180000000      0.83906820000000
  C   -2.36253520000000     -1.07041605000000      0.11632940000000
  H   -3.05315806000000     -0.22353372000000      0.06652871000000
  H   -3.02233725000000     -1.92672812000000     -0.05905687000000
  O   1.47964017000000      0.55938840000000     -1.89401921000000
  C   2.19122460000000     -0.30434769000000     -2.49676164000000
  O   2.13610280000000     -1.44885441000000     -2.17290182000000
  C   3.24034124000000      0.16831393000000     -3.48468933000000
  H   3.59630279000000     -0.66598307000000     -4.07627576000000
  H   4.09943895000000      0.55360121000000     -2.93055830000000
  H   2.91590586000000      0.93945682000000     -4.17116667000000
