27
Coordinates from ORCA-job 3_2_orca
  Pd  -2.08264476000000     -1.69300748000000      0.58815139000000
  Cl  -3.45835663000000     -3.27565372000000     -0.18386208000000
  Cl  -0.63104867000000     -4.48228500000000      1.22121059000000
  Cl  -4.03325863000000     -0.28819913000000      0.84088588000000
  N   -0.99154310000000     -0.10255441000000      1.42895329000000
  C   -1.28419337000000      0.46139804000000      2.57982475000000
  C   -0.77447373000000      1.68392080000000      3.00598364000000
  C   0.08716089000000      2.36461940000000      2.15942922000000
  C   -0.06873291000000      0.49937503000000      0.62399113000000
  C   0.45317254000000      1.77922060000000      0.94553765000000
  H   0.49164197000000      3.31994242000000      2.44153059000000
  H   -1.96326539000000     -0.08840917000000      3.20612022000000
  H   -1.07981618000000      2.10693674000000      3.93800634000000
  C   0.34221000000000     -0.19094259000000     -0.59954181000000
  C   1.35089476000000      2.43992878000000      0.06006966000000
  C   1.70084031000000      1.84383190000000     -1.12342085000000
  C   1.21219752000000      0.55292756000000     -1.45812617000000
  H   1.74481380000000      3.39862131000000      0.32017882000000
  H   2.36917176000000      2.35029712000000     -1.78656911000000
  C   -0.12508365000000     -1.56523335000000     -0.87999971000000
  C   1.68501281000000     -0.04644721000000     -2.65551956000000
  C   0.33714415000000     -2.00714493000000     -2.12029644000000
  C   1.20273650000000     -1.32717516000000     -2.98760528000000
  H   2.33224930000000      0.47370409000000     -3.30012781000000
  H   1.58909369000000     -1.78507554000000     -3.87627847000000
  H   -0.37993415000000     -3.45629768000000      0.07665899000000
  H   -0.03224797000000     -2.96834622000000     -2.46250886000000
