27
Coordinates from ORCA-job 3_5_orca
  Pd  -2.07686666000000     -1.66528403000000      0.57089863000000
  Cl  -3.47446320000000     -3.27522013000000     -0.18364830000000
  Cl  -0.62267257000000     -4.40462347000000      1.17203854000000
  Cl  -4.00645625000000     -0.27695228000000      0.82494163000000
  N   -0.97528063000000     -0.10756284000000      1.41700826000000
  C   -1.28638611000000      0.44950428000000      2.57704551000000
  C   -0.76624269000000      1.67945438000000      3.00232318000000
  C   0.08322084000000      2.35371272000000      2.16378912000000
  C   -0.06963822000000      0.48858232000000      0.61782247000000
  C   0.44817935000000      1.76335411000000      0.94867953000000
  H   0.48971078000000      3.31793225000000      2.44023772000000
  H   -1.97165236000000     -0.09803441000000      3.21257657000000
  H   -1.07714451000000      2.09746263000000      3.94519468000000
  C   0.33701456000000     -0.21395997000000     -0.59074579000000
  C   1.34548926000000      2.42958703000000      0.04889612000000
  C   1.68759909000000      1.84486727000000     -1.11243182000000
  C   1.20389443000000      0.53182882000000     -1.45280291000000
  H   1.73980963000000      3.40529283000000      0.32194268000000
  H   2.36495207000000      2.35304202000000     -1.79592585000000
  C   -0.10508521000000     -1.55323169000000     -0.87234749000000
  C   1.66702054000000     -0.05724192000000     -2.65403320000000
  C   0.33283627000000     -2.02215293000000     -2.10891886000000
  C   1.20662462000000     -1.31747655000000     -2.97707492000000
  H   2.33705890000000      0.48209190000000     -3.30733653000000
  H   1.58722357000000     -1.78875975000000     -3.88256569000000
  H   -0.39094126000000     -3.43461789000000      0.14056159000000
  H   -0.01517223000000     -2.98325317000000     -2.46164326000000
