27
Coordinates from ORCA-job 3_8_orca
  Pd  -2.01272803000000     -1.52818794000000      0.40577880000000
  Cl  -3.50329068000000     -3.25974113000000     -0.20579803000000
  Cl  -0.52983929000000     -4.13969938000000      0.97531500000000
  Cl  -3.90899342000000     -0.24465844000000      0.83139730000000
  N   -0.95456882000000     -0.13679416000000      1.39917586000000
  C   -1.30629350000000      0.40555526000000      2.57766966000000
  C   -0.75922580000000      1.63769660000000      2.99762191000000
  C   0.07204280000000      2.30490231000000      2.17032162000000
  C   -0.05503409000000      0.44894701000000      0.61638435000000
  C   0.44988261000000      1.72689032000000      0.95095932000000
  H   0.47789041000000      3.29989843000000      2.42118625000000
  H   -2.00576117000000     -0.11861384000000      3.20840064000000
  H   -1.06624195000000      2.05300754000000      3.96071899000000
  C   0.36469900000000     -0.25845266000000     -0.55912838000000
  C   1.32736906000000      2.39750766000000      0.01886875000000
  C   1.64192256000000      1.82310348000000     -1.08473226000000
  C   1.20825849000000      0.48868139000000     -1.44238552000000
  H   1.70960738000000      3.40494222000000      0.32610604000000
  H   2.32476598000000      2.32832341000000     -1.81517022000000
  C   -0.10190312000000     -1.55321387000000     -0.83137183000000
  C   1.61372856000000     -0.08894583000000     -2.65051245000000
  C   0.33664085000000     -2.07794027000000     -2.06958017000000
  C   1.19494403000000     -1.32664230000000     -2.94480523000000
  H   2.32636232000000      0.48884823000000     -3.29340700000000
  H   1.54476564000000     -1.79913655000000     -3.87919561000000
  H   -0.44096890000000     -3.23150118000000      0.37835776000000
  H   0.03883056000000     -3.04649376000000     -2.44712766000000
