27
Coordinates from ORCA-job 3_9_orca
  Pd  -2.05280685000000     -1.61574644000000      0.51101160000000
  Cl  -3.48979260000000     -3.26896623000000     -0.18937574000000
  Cl  -0.58963680000000     -4.28591849000000      1.08671669000000
  Cl  -3.96669302000000     -0.26113423000000      0.82072279000000
  N   -0.96707250000000     -0.11990103000000      1.41129000000000
  C   -1.29281205000000      0.43225624000000      2.57613808000000
  C   -0.76367570000000      1.66134443000000      3.00169081000000
  C   0.08022961000000      2.33580918000000      2.16538702000000
  C   -0.06392878000000      0.47139863000000      0.61451140000000
  C   0.44836580000000      1.74806178000000      0.94943083000000
  H   0.48525186000000      3.31105884000000      2.43334483000000
  H   -1.98471700000000     -0.10780699000000      3.21305836000000
  H   -1.07239415000000      2.07970272000000      3.95209985000000
  C   0.34658094000000     -0.23375598000000     -0.57812831000000
  C   1.33596066000000      2.42009898000000      0.04253993000000
  C   1.67029361000000      1.83481288000000     -1.10685636000000
  C   1.20196832000000      0.51141784000000     -1.44770183000000
  H   1.72756491000000      3.40565149000000      0.32332062000000
  H   2.34947800000000      2.34546144000000     -1.80436917000000
  C   -0.09883669000000     -1.55601480000000     -0.85469077000000
  C   1.64656847000000     -0.06597246000000     -2.65180843000000
  C   0.33618913000000     -2.04279455000000     -2.09394428000000
  C   1.20139807000000     -1.32217193000000     -2.96573164000000
  H   2.33429641000000      0.48644314000000     -3.30427831000000
  H   1.57281193000000     -1.79257855000000     -3.88235590000000
  H   -0.41223093000000     -3.36240074000000      0.24341595000000
  H   0.00799509000000     -3.00993114000000     -2.45696858000000
