27
Coordinates from ORCA-job 3_2_orca
  Pd  -2.26913845000000     -1.76565704000000      0.79111974000000
  Cl  -3.73070146000000     -3.18398151000000     -0.04895913000000
  Cl  -1.00857083000000     -4.14204476000000      1.60531198000000
  Cl  -3.76360116000000     -0.00141562000000      0.34431467000000
  N   -0.94155323000000     -0.19692256000000      1.44851336000000
  C   -1.22959846000000      0.34662900000000      2.60796305000000
  C   -0.73140488000000      1.57792901000000      3.03590460000000
  C   0.08327884000000      2.27687222000000      2.18209311000000
  C   -0.06099120000000      0.42890703000000      0.62427984000000
  C   0.43386941000000      1.72258152000000      0.94686352000000
  H   0.46362081000000      3.25038989000000      2.46250606000000
  H   -1.90889338000000     -0.20675273000000      3.22625251000000
  H   -1.02019471000000      1.96840287000000      3.99658124000000
  C   0.34985140000000     -0.25431650000000     -0.58887385000000
  C   1.27195249000000      2.41987201000000      0.03777334000000
  C   1.60651592000000      1.85138224000000     -1.15317633000000
  C   1.17423755000000      0.52890940000000     -1.49123544000000
  H   1.63077392000000      3.40264087000000      0.29423433000000
  H   2.23153868000000      2.39733643000000     -1.84371681000000
  C   0.07423601000000     -1.77746689000000     -0.84139687000000
  C   1.63868719000000     -0.05300437000000     -2.69432562000000
  C   0.48181741000000     -2.09281176000000     -2.12436644000000
  C   1.27842917000000     -1.32167385000000     -3.00894545000000
  H   2.25585510000000      0.52260209000000     -3.36092118000000
  H   1.65247489000000     -1.78383572000000     -3.91184207000000
  H   -0.20958376000000     -2.81929445000000     -0.13943149000000
  H   0.24742154000000     -3.09228287000000     -2.39482766000000
