27
Coordinates from ORCA-job 3_3_orca
  Pd  -2.26273867000000     -1.76105440000000      0.79200914000000
  Cl  -3.72689339000000     -3.19264822000000     -0.05620207000000
  Cl  -0.99837276000000     -4.14281271000000      1.59076139000000
  Cl  -3.76746652000000     -0.01439535000000      0.36235705000000
  N   -0.93823793000000     -0.19607753000000      1.44698341000000
  C   -1.23393174000000      0.34889774000000      2.60701620000000
  C   -0.73162898000000      1.58353991000000      3.03434114000000
  C   0.08306673000000      2.28072126000000      2.18275167000000
  C   -0.06282025000000      0.42631083000000      0.61906087000000
  C   0.43257597000000      1.71984217000000      0.94774848000000
  H   0.46444086000000      3.25309140000000      2.46163274000000
  H   -1.91318444000000     -0.20288198000000      3.22747094000000
  H   -1.02242061000000      1.97341351000000      3.99527704000000
  C   0.35284549000000     -0.27585443000000     -0.58639544000000
  C   1.27504148000000      2.41830279000000      0.03551214000000
  C   1.60600411000000      1.84887147000000     -1.14934397000000
  C   1.16707129000000      0.51840589000000     -1.48122882000000
  H   1.63524705000000      3.40387733000000      0.29570876000000
  H   2.23663457000000      2.39520801000000     -1.84278335000000
  C   0.08094614000000     -1.74425377000000     -0.84507867000000
  C   1.63700277000000     -0.05178929000000     -2.69049713000000
  C   0.47692175000000     -2.09706672000000     -2.11591934000000
  C   1.27148523000000     -1.32399762000000     -3.00617913000000
  H   2.26124819000000      0.52255603000000     -3.36030054000000
  H   1.64862027000000     -1.78384994000000     -3.91169368000000
  H   -0.21050182000000     -2.80684081000000     -0.14686393000000
  H   0.23937334000000     -3.09683423000000     -2.40369446000000
