27
Coordinates from ORCA-job 3_4_orca
  Pd  -2.23128334000000     -1.78281604000000      0.78421865000000
  Cl  -3.68998687000000     -3.21972661000000     -0.08644734000000
  Cl  -0.93922715000000     -4.14548297000000      1.50851244000000
  Cl  -3.79722087000000     -0.07152980000000      0.45774571000000
  N   -0.94137906000000     -0.18784173000000      1.44753460000000
  C   -1.24970565000000      0.37077407000000      2.60208405000000
  C   -0.73821453000000      1.60450902000000      3.02656872000000
  C   0.08233677000000      2.29574189000000      2.18087357000000
  C   -0.06658275000000      0.41779469000000      0.61466042000000
  C   0.43304826000000      1.71957563000000      0.94698321000000
  H   0.47021535000000      3.26821507000000      2.45543488000000
  H   -1.93145079000000     -0.18057664000000      3.22905486000000
  H   -1.03497397000000      2.00075953000000      3.98659893000000
  C   0.35703910000000     -0.33011483000000     -0.56923338000000
  C   1.28887408000000      2.41618787000000      0.03499390000000
  C   1.61111035000000      1.83675506000000     -1.13577318000000
  C   1.15351959000000      0.49003799000000     -1.45967040000000
  H   1.65805490000000      3.40578093000000      0.30231301000000
  H   2.26152169000000      2.38026583000000     -1.83479900000000
  C   0.09595102000000     -1.72542321000000     -0.82563385000000
  C   1.63402270000000     -0.05148989000000     -2.67681270000000
  C   0.45590198000000     -2.10345527000000     -2.10757746000000
  C   1.24001257000000     -1.32462328000000     -2.99945874000000
  H   2.28398865000000      0.51984546000000     -3.34954047000000
  H   1.63009163000000     -1.78398957000000     -3.90742845000000
  H   -0.22727654000000     -2.71820691000000     -0.18897309000000
  H   0.19189097000000     -3.09847624000000     -2.43086056000000
