27
Coordinates from ORCA-job 3_5_orca
  Pd  -2.21434594000000     -1.78145902000000      0.78011717000000
  Cl  -3.66954541000000     -3.24018392000000     -0.10760433000000
  Cl  -0.89904845000000     -4.14449070000000      1.45235997000000
  Cl  -3.81309218000000     -0.11103228000000      0.51984434000000
  N   -0.94074005000000     -0.18398882000000      1.44875121000000
  C   -1.25714615000000      0.38526651000000      2.59816759000000
  C   -0.74700318000000      1.61331267000000      3.02260230000000
  C   0.08243396000000      2.30087727000000      2.17402218000000
  C   -0.06816105000000      0.40956704000000      0.61412537000000
  C   0.43303423000000      1.71503351000000      0.94415064000000
  H   0.47389604000000      3.27796755000000      2.45140102000000
  H   -1.94458031000000     -0.16641535000000      3.23014937000000
  H   -1.04233586000000      2.01740863000000      3.98148108000000
  C   0.36812649000000     -0.33406113000000     -0.55448391000000
  C   1.29507051000000      2.41472044000000      0.03940469000000
  C   1.61277507000000      1.82282209000000     -1.13075013000000
  C   1.15498372000000      0.47399605000000     -1.45284777000000
  H   1.67100582000000      3.40398290000000      0.30539328000000
  H   2.27214871000000      2.36561378000000     -1.82719310000000
  C   0.09811131000000     -1.69927718000000     -0.83232546000000
  C   1.62595624000000     -0.05434734000000     -2.66377490000000
  C   0.45032384000000     -2.10350063000000     -2.10932855000000
  C   1.22347374000000     -1.33157075000000     -2.99244394000000
  H   2.29339459000000      0.51463266000000     -3.33788606000000
  H   1.61449183000000     -1.78337258000000     -3.90374364000000
  H   -0.23678739000000     -2.68074875000000     -0.19554349000000
  H   0.16361918000000     -3.09907795000000     -2.44606560000000
