27
Coordinates from ORCA-job 3_6_orca
  Pd  -2.18733821000000     -1.79410591000000      0.76706546000000
  Cl  -3.62884560000000     -3.26734428000000     -0.14103171000000
  Cl  -0.82535255000000     -4.13591767000000      1.34857602000000
  Cl  -3.84241465000000     -0.17412486000000      0.62744237000000
  N   -0.94733263000000     -0.17853330000000      1.45299549000000
  C   -1.27370409000000      0.40492224000000      2.59536766000000
  C   -0.75918398000000      1.63205545000000      3.01427122000000
  C   0.08104512000000      2.30748324000000      2.16368621000000
  C   -0.06578540000000      0.40497777000000      0.62459946000000
  C   0.43476376000000      1.71296198000000      0.94153966000000
  H   0.47908963000000      3.29056284000000      2.44197892000000
  H   -1.96334522000000     -0.13929144000000      3.22729317000000
  H   -1.05506795000000      2.04470964000000      3.97129590000000
  C   0.38377429000000     -0.32192345000000     -0.53443988000000
  C   1.30518609000000      2.40789105000000      0.04353240000000
  C   1.62005040000000      1.80464917000000     -1.12101916000000
  C   1.16506986000000      0.46469962000000     -1.44255683000000
  H   1.69185196000000      3.39855223000000      0.31022176000000
  H   2.28790723000000      2.33789573000000     -1.81312646000000
  C   0.09393432000000     -1.71118217000000     -0.83556895000000
  C   1.61873764000000     -0.06604553000000     -2.65408417000000
  C   0.43363906000000     -2.10639276000000     -2.11508964000000
  C   1.20456611000000     -1.33328611000000     -2.98857381000000
  H   2.30329567000000      0.50236590000000     -3.31198637000000
  H   1.58733759000000     -1.78242674000000     -3.89696493000000
  H   -0.25821677000000     -2.61329815000000     -0.19950203000000
  H   0.11623872000000     -3.08907960000000     -2.46306218000000
