27
Coordinates from ORCA-job 3_7_orca
  Pd  -2.16415531000000     -1.80471810000000      0.74829900000000
  Cl  -3.58219214000000     -3.29327357000000     -0.17869838000000
  Cl  -0.73329508000000     -4.10834456000000      1.21577019000000
  Cl  -3.87224943000000     -0.24423079000000      0.75178213000000
  N   -0.95801975000000     -0.17612705000000      1.46314619000000
  C   -1.28974518000000      0.42295764000000      2.59051862000000
  C   -0.77307242000000      1.65120238000000      3.00172929000000
  C   0.07731332000000      2.31467243000000      2.15670135000000
  C   -0.05700640000000      0.40851949000000      0.64333528000000
  C   0.43949458000000      1.71417303000000      0.94161811000000
  H   0.48155709000000      3.29527353000000      2.42646677000000
  H   -1.98704312000000     -0.10915365000000      3.22218252000000
  H   -1.06862547000000      2.07287982000000      3.95854880000000
  C   0.39871221000000     -0.31881976000000     -0.52737779000000
  C   1.31408989000000      2.39448892000000      0.04710934000000
  C   1.63294656000000      1.78981454000000     -1.10904812000000
  C   1.18519288000000      0.46602494000000     -1.42943783000000
  H   1.71013822000000      3.38407594000000      0.31350431000000
  H   2.30003552000000      2.30162907000000     -1.79731094000000
  C   0.08956409000000     -1.69230021000000     -0.84659462000000
  C   1.61399746000000     -0.08410189000000     -2.64922650000000
  C   0.41062079000000     -2.11219680000000     -2.12070376000000
  C   1.19241871000000     -1.33354714000000     -2.98657096000000
  H   2.30477905000000      0.48292383000000     -3.27665179000000
  H   1.55418449000000     -1.78274883000000     -3.89434553000000
  H   -0.28737121000000     -2.56490592000000     -0.16991923000000
  H   0.06784981000000     -3.07490066000000     -2.47475424000000
