21
Coordinates from ORCA-job 2_3_orca
  Sc  1.51945152000000     -1.35630736000000     -1.64250861000000
  C   0.45693476000000     -0.69130564000000      0.23018223000000
  N   -0.44276023000000     -1.40908284000000      0.92743017000000
  C   -0.88495684000000     -0.71014394000000      2.01535334000000
  C   -0.20249551000000      0.45622644000000      2.02853875000000
  N   0.62073506000000      0.44198747000000      0.93191652000000
  C   1.49557838000000      1.55017481000000      0.57837029000000
  H   1.81855275000000      2.06262882000000      1.47843280000000
  H   0.98418816000000      2.25700153000000     -0.07205645000000
  H   2.38413205000000      1.16958166000000      0.06721831000000
  C   -0.97554261000000     -2.71622999000000      0.58420972000000
  H   -0.43960813000000     -3.12785433000000     -0.26670948000000
  H   -2.03217817000000     -2.65020192000000      0.32363944000000
  H   -0.85737914000000     -3.39435249000000      1.42782955000000
  H   -1.58739074000000     -1.11131149000000      2.73358036000000
  H   -0.26373921000000      1.29164884000000      2.70336633000000
  C   -0.33531675000000      1.60273578000000     -2.80356684000000
  H   -0.83038434000000      1.12406913000000     -3.59827593000000
  H   -0.48129862000000      2.64532058000000     -2.85000147000000
  H   -0.70370881000000      1.23857328000000     -1.87915731000000
  H   0.75821172000000      1.32883320000000     -2.91842350000000
