21
Coordinates from ORCA-job 2_4_orca
  Sc  1.52798608000000     -1.35780716000000     -1.63357687000000
  C   0.45549447000000     -0.69112853000000      0.23278136000000
  N   -0.44695150000000     -1.40757615000000      0.92710541000000
  C   -0.88480295000000     -0.71077525000000      2.01749513000000
  C   -0.19694295000000      0.45563998000000      2.03004669000000
  N   0.62132109000000      0.44327143000000      0.93456319000000
  C   1.49617777000000      1.54675799000000      0.57591130000000
  H   1.80854645000000      2.06144753000000      1.48153955000000
  H   0.98959799000000      2.25365733000000     -0.08048884000000
  H   2.38526040000000      1.16945155000000      0.06320383000000
  C   -0.97451714000000     -2.71585595000000      0.58553677000000
  H   -0.43948246000000     -3.12615161000000     -0.26516767000000
  H   -2.02992306000000     -2.64801896000000      0.32511248000000
  H   -0.85808259000000     -3.39518769000000      1.42885864000000
  H   -1.59504900000000     -1.10884501000000      2.72882934000000
  H   -0.26131872000000      1.29271547000000      2.70514611000000
  C   -0.34074529000000      1.59724241000000     -2.79867530000000
  H   -0.83327794000000      1.12793566000000     -3.61262134000000
  H   -0.44272293000000      2.66074453000000     -2.85094694000000
  H   -0.68108720000000      1.23781312000000     -1.88252582000000
  H   0.70171175000000      1.31729719000000     -2.91287379000000
