21
Coordinates from ORCA-job 2_5_orca
  Sc  1.54173593000000     -1.36098819000000     -1.62167583000000
  C   0.46373915000000     -0.70172526000000      0.24244652000000
  N   -0.46463987000000     -1.39886943000000      0.92233042000000
  C   -0.87328899000000     -0.71337642000000      2.02764469000000
  C   -0.19786169000000      0.46115818000000      2.03082116000000
  N   0.61593462000000      0.44395306000000      0.93133490000000
  C   1.49562784000000      1.54387436000000      0.57263226000000
  H   1.79969274000000      2.06012847000000      1.48037146000000
  H   0.99402216000000      2.24832438000000     -0.08843876000000
  H   2.38514360000000      1.16982183000000      0.06352570000000
  C   -0.97531783000000     -2.71718909000000      0.58656318000000
  H   -0.43783307000000     -3.12492432000000     -0.26414162000000
  H   -2.02621371000000     -2.64396431000000      0.32740521000000
  H   -0.85773358000000     -3.39506615000000      1.42869413000000
  H   -1.60285195000000     -1.10425042000000      2.71951298000000
  H   -0.25532427000000      1.29132845000000      2.70836500000000
  C   -0.35338370000000      1.60422514000000     -2.81809326000000
  H   -0.86092696000000      1.12722333000000     -3.64630080000000
  H   -0.39431733000000      2.68696366000000     -2.85522522000000
  H   -0.68108435000000      1.21894228000000     -1.84012585000000
  H   0.68609062000000      1.30792624000000     -2.90843048000000
