21
Coordinates from ORCA-job 2_9_orca
  Sc  1.59555791000000     -1.37358241000000     -1.58357752000000
  C   0.46284358000000     -0.70608745000000      0.23841787000000
  N   -0.44057809000000     -1.41326116000000      0.94455249000000
  C   -0.89037788000000     -0.70118069000000      2.02275798000000
  C   -0.20076233000000      0.46061595000000      2.02961762000000
  N   0.61704315000000      0.43706137000000      0.93636433000000
  C   1.48619243000000      1.53997230000000      0.56334589000000
  H   1.78656456000000      2.07364449000000      1.46133569000000
  H   0.98337300000000      2.23393638000000     -0.10969401000000
  H   2.38909161000000      1.16287041000000      0.09563051000000
  C   -0.98366538000000     -2.71170967000000      0.58822905000000
  H   -0.44018794000000     -3.10988788000000     -0.26496943000000
  H   -2.04371241000000     -2.64841882000000      0.33036390000000
  H   -0.84763853000000     -3.38800296000000      1.42553771000000
  H   -1.61650115000000     -1.09156476000000      2.71920436000000
  H   -0.22640270000000      1.28772788000000      2.72479393000000
  C   -0.27868435000000      1.56816441000000     -2.82864060000000
  H   -0.95856440000000      1.22867647000000     -3.60224336000000
  H   -0.32534495000000      2.63652708000000     -2.85916775000000
  H   -0.75977855000000      1.26821987000000     -1.88712939000000
  H   0.69213230000000      1.25334196000000     -2.94446641000000
