38
Coordinates from ORCA-job 0_0_orca
  Pd  0.82870000000000      0.73900000000000     -0.60406000000000
  O   2.45890000000000      1.87027000000000     -0.05280000000000
  C   1.70181000000000      2.86527000000000      0.09377000000000
  O   0.46137000000000      2.68779000000000     -0.09865000000000
  C   2.24296000000000      4.21326000000000      0.43766000000000
  H   1.49914000000000      4.81145000000000      0.95876000000000
  H   2.50943000000000      4.73366000000000     -0.48397000000000
  H   3.14321000000000      4.12639000000000      1.04172000000000
  N   -1.07263000000000      0.00613000000000     -1.06554000000000
  C   -1.15940000000000     -0.25655000000000     -2.51416000000000
  H   -0.89237000000000      0.63671000000000     -3.07390000000000
  H   -2.17942000000000     -0.55109000000000     -2.78294000000000
  H   -0.47917000000000     -1.05247000000000     -2.79967000000000
  C   -2.06321000000000      1.04065000000000     -0.72428000000000
  H   -2.00206000000000      1.30545000000000      0.32747000000000
  H   -3.07436000000000      0.68024000000000     -0.94281000000000
  H   -1.88014000000000      1.93441000000000     -1.31557000000000
  C   -1.33454000000000     -1.15969000000000      1.14989000000000
  C   -0.14331000000000     -1.36246000000000      1.84230000000000
  C   -0.11255000000000     -1.27696000000000      3.22579000000000
  C   -1.27019000000000     -0.99590000000000      3.93609000000000
  C   -2.46488000000000     -0.81036000000000      3.25741000000000
  C   -2.49384000000000     -0.89690000000000      1.87414000000000
  H   -1.24339000000000     -0.93301000000000      5.01592000000000
  H   -3.37562000000000     -0.60532000000000      3.80442000000000
  H   0.76045000000000     -1.60696000000000      1.29944000000000
  H   0.82014000000000     -1.43892000000000      3.74968000000000
  H   -3.43445000000000     -0.76586000000000      1.35141000000000
  C   -1.38065000000000     -1.26129000000000     -0.34797000000000
  H   -2.38049000000000     -1.58796000000000     -0.66223000000000
  H   -0.66999000000000     -2.00856000000000     -0.69644000000000
  O   1.60612000000000     -1.03807000000000     -0.96913000000000
  C   2.23274000000000     -1.12529000000000     -2.10753000000000
  O   2.22304000000000     -0.26682000000000     -2.96556000000000
  C   3.00099000000000     -2.42045000000000     -2.26795000000000
  H   2.41501000000000     -3.27879000000000     -1.94093000000000
  H   3.89798000000000     -2.39130000000000     -1.64723000000000
  H   3.30467000000000     -2.55970000000000     -3.30253000000000
