38
Coordinates from ORCA-job 8_1_orca
  C   -1.89878006000000      0.00331281000000      0.55744469000000
  C   -1.71184972000000      1.06024064000000      1.45768758000000
  C   -3.30224321000000     -0.13693827000000      0.16001330000000
  C   -4.29951736000000      0.76156074000000      0.49099252000000
  C   -4.00651238000000      1.84758713000000      1.28147354000000
  C   -2.71169073000000      2.00430492000000      1.76214138000000
  H   -2.17745827000000     -2.56517635000000     -2.20083620000000
  H   -3.62375237000000     -1.04110324000000     -0.30974696000000
  H   -2.52946962000000      2.82860331000000      2.41419269000000
  H   -5.32228666000000      0.58325993000000      0.16483105000000
  H   -4.78364105000000      2.53484871000000      1.58230210000000
  C   -0.41945999000000      1.28495276000000      2.29025363000000
  C   0.79566736000000      0.34405742000000      2.15417777000000
  H   -0.72246218000000      1.24325039000000      3.32352100000000
  H   -0.09657165000000      2.27951262000000      2.09209118000000
  C   1.67227463000000      0.65929440000000      0.99417616000000
  H   0.48732003000000     -0.68820312000000      2.13593853000000
  H   1.39505048000000      0.45607879000000      3.06633961000000
  C   1.41775621000000      0.13384554000000     -0.28569680000000
  C   2.32844030000000      0.39834678000000     -1.30807114000000
  C   3.35183113000000      1.33015250000000     -1.12272161000000
  C   2.79341058000000      1.48301496000000      1.16992016000000
  C   3.56773765000000      1.90496617000000      0.10153623000000
  H   2.31345468000000     -0.15333885000000     -2.21357584000000
  H   4.05295656000000      1.51838867000000     -1.94354037000000
  H   3.08834996000000      1.77028364000000      2.17835130000000
  H   4.30001306000000      2.69840939000000      0.23017932000000
  Pd  -0.04880055000000     -1.27787007000000     -0.42743499000000
  Br  -1.57990829000000     -3.64305430000000     -0.09124656000000
  P   1.53499496000000     -3.00270508000000     -0.18789330000000
  H   1.49519459000000     -3.67752358000000      1.05466986000000
  C   0.06861603000000     -1.64192458000000     -3.78155133000000
  O   1.30069526000000     -1.72018083000000     -4.19167841000000
  O   -0.60078278000000     -2.54195025000000     -3.24284817000000
  O   -0.56242025000000     -0.42645829000000     -3.92955638000000
  H   2.88070868000000     -2.74644978000000     -0.18519957000000
  H   1.50702864000000     -4.11055263000000     -1.02354045000000
  H   0.04948926000000      0.24662482000000     -4.21902589000000
