38
Coordinates from ORCA-job 8_3_orca
  C   -1.88883067000000     -0.00452577000000      0.53035059000000
  C   -1.71184802000000      1.05547691000000      1.45510178000000
  C   -3.29506633000000     -0.16485423000000      0.19999703000000
  C   -4.31107966000000      0.74062134000000      0.51437342000000
  C   -4.01346751000000      1.84853481000000      1.29861832000000
  C   -2.73482585000000      1.98428798000000      1.77529735000000
  H   -2.10232248000000     -2.52855285000000     -2.18888420000000
  H   -3.62853533000000     -1.07257790000000     -0.28973229000000
  H   -2.51939764000000      2.84152375000000      2.40787755000000
  H   -5.33644734000000      0.56541231000000      0.19710208000000
  H   -4.79275806000000      2.53186360000000      1.60377709000000
  C   -0.42134568000000      1.29415860000000      2.26371780000000
  C   0.79091913000000      0.34895691000000      2.14791736000000
  H   -0.71499653000000      1.28075163000000      3.30896571000000
  H   -0.09042995000000      2.29955119000000      2.04534956000000
  C   1.69138984000000      0.64003834000000      0.98649995000000
  H   0.47342907000000     -0.68877551000000      2.12645688000000
  H   1.38339880000000      0.46676059000000      3.05721417000000
  C   1.43221497000000      0.11371003000000     -0.28622932000000
  C   2.34642142000000      0.38596923000000     -1.30943962000000
  C   3.36091110000000      1.32331174000000     -1.13416127000000
  C   2.77639776000000      1.50185130000000      1.16740253000000
  C   3.58632017000000      1.89033305000000      0.10840187000000
  H   2.31795714000000     -0.16703617000000     -2.23222471000000
  H   4.05897306000000      1.51217896000000     -1.94163266000000
  H   3.07725189000000      1.77567993000000      2.17491206000000
  H   4.31666690000000      2.68197565000000      0.23503507000000
  Pd  -0.11461595000000     -1.25718647000000     -0.37939873000000
  Br  -1.59700853000000     -3.61157135000000     -0.17652218000000
  P   1.53981676000000     -2.99624358000000     -0.18916328000000
  H   1.46890301000000     -3.66725771000000      1.06007887000000
  C   0.09876509000000     -1.63367652000000     -3.80856001000000
  O   1.26647381000000     -1.71940393000000     -4.16633425000000
  O   -0.64723333000000     -2.52467312000000     -3.20860537000000
  O   -0.55427323000000     -0.42190491000000     -3.93459357000000
  H   2.89762953000000     -2.74706058000000     -0.16336111000000
  H   1.51452862000000     -4.11756230000000     -1.01478547000000
  H   0.08168711000000      0.24242062000000     -4.24444190000000
