38
Coordinates from ORCA-job 8_5_orca
  C   -1.91724768000000     -0.00340080000000      0.50824260000000
  C   -1.70508279000000      1.04661668000000      1.43515285000000
  C   -3.28120596000000     -0.24717303000000      0.29770137000000
  C   -4.33457339000000      0.65547278000000      0.62131907000000
  C   -4.05371572000000      1.81726600000000      1.35327045000000
  C   -2.76247725000000      1.92955710000000      1.80805328000000
  H   -1.83839439000000     -2.39912027000000     -2.16332951000000
  H   -3.64874632000000     -1.16548220000000     -0.19647466000000
  H   -2.49800725000000      2.85787298000000      2.37945704000000
  H   -5.37893708000000      0.49376796000000      0.31901962000000
  H   -4.82875861000000      2.51849876000000      1.67612739000000
  C   -0.42548030000000      1.32337281000000      2.15830257000000
  C   0.77351023000000      0.37049791000000      2.11321368000000
  H   -0.68341746000000      1.42428024000000      3.24431095000000
  H   -0.07349831000000      2.34998715000000      1.87046101000000
  C   1.72330597000000      0.61510007000000      0.95549193000000
  H   0.42640577000000     -0.68113353000000      2.09905132000000
  H   1.34628456000000      0.49913292000000      3.03426989000000
  C   1.44889123000000      0.04421349000000     -0.28126226000000
  C   2.38622904000000      0.33733721000000     -1.31211710000000
  C   3.40849321000000      1.27726476000000     -1.14475362000000
  C   2.76795427000000      1.51662790000000      1.15547201000000
  C   3.61574074000000      1.86114811000000      0.11464602000000
  H   2.34222604000000     -0.20437377000000     -2.28164148000000
  H   4.09461808000000      1.49117474000000     -1.94401631000000
  H   3.03635396000000      1.80402131000000      2.16482305000000
  H   4.37579076000000      2.62379639000000      0.25064227000000
  Pd  -0.24255789000000     -1.22264698000000     -0.25904501000000
  Br  -1.66409675000000     -3.50021566000000     -0.46088121000000
  P   1.50938620000000     -2.95820615000000     -0.17972632000000
  H   1.38054858000000     -3.62949581000000      1.07131242000000
  C   0.08894710000000     -1.57277598000000     -3.78904086000000
  O   1.19970844000000     -1.75567761000000     -4.11295985000000
  O   -0.74892906000000     -2.43963869000000     -3.13935359000000
  O   -0.49768445000000     -0.40015380000000     -3.98569983000000
  H   2.94566287000000     -2.75004929000000     -0.08048384000000
  H   1.54401548000000     -4.13864025000000     -0.98079089000000
  H   0.17714236000000      0.21534874000000     -4.32843939000000
