21
Coordinates from ORCA-job 3_5_orca
  Sc  1.66058722000000     -1.39276482000000     -1.51776490000000
  C   0.45050568000000     -0.68286118000000      0.24772610000000
  N   -0.46933495000000     -1.38848481000000      0.93048973000000
  C   -0.86712644000000     -0.71633864000000      2.05074402000000
  C   -0.18689339000000      0.45623790000000      2.05991253000000
  N   0.60920073000000      0.45570216000000      0.94952154000000
  C   1.47186807000000      1.56233922000000      0.57336054000000
  H   1.69824400000000      2.14832756000000      1.46063963000000
  H   0.99758020000000      2.20798672000000     -0.16682489000000
  H   2.40849834000000      1.18410986000000      0.16444936000000
  C   -0.99475848000000     -2.69839716000000      0.57763810000000
  H   -0.50137505000000     -3.07359682000000     -0.31411633000000
  H   -2.06281935000000     -2.64055959000000      0.37999025000000
  H   -0.81331913000000     -3.39450057000000      1.39125120000000
  H   -1.56770255000000     -1.13013173000000      2.76048011000000
  H   -0.20856019000000      1.26242855000000      2.77160295000000
  C   -0.38545628000000      1.61515446000000     -2.85859666000000
  H   -1.00544540000000      1.36874755000000     -3.66382622000000
  H   -0.00832474000000      2.61024162000000     -2.89161169000000
  H   -0.73622127000000      1.32375633000000     -1.90667675000000
  H   0.51177154000000      0.92505163000000     -2.99732558000000
