39
Coordinates from ORCA-job 7_4_orca
  Ir  0.58799149000000     -0.74367672000000      0.61983589000000
  C   -0.02520052000000     -2.88181347000000      1.31164267000000
  C   0.36744652000000     -2.10785540000000      2.43272864000000
  C   2.13495794000000     -2.22106026000000      0.97839517000000
  C   1.01692650000000     -2.85574143000000      0.35452939000000
  C   1.72705844000000     -1.74008607000000      2.24347875000000
  N   -1.07200885000000     -0.09463220000000     -0.49764329000000
  C   -2.47796394000000     -0.06655689000000      0.02516356000000
  C   -2.85273230000000      1.26931842000000      0.65867149000000
  H   -3.89210656000000      1.22601892000000      0.98334263000000
  H   -2.76192285000000      2.08169273000000     -0.06302528000000
  H   -2.23989512000000      1.48670130000000      1.53314475000000
  C   -3.50223123000000     -0.47178580000000     -1.02775406000000
  H   -2.49422295000000     -0.83034744000000      0.81352864000000
  H   -4.45657530000000     -0.61222691000000     -0.53781795000000
  H   -3.65733421000000      0.29706998000000     -1.79024471000000
  H   -3.23696120000000     -1.41352300000000     -1.51939893000000
  C   -0.82513734000000      0.24966912000000     -1.71089554000000
  C   0.50538165000000      0.17689967000000     -2.25010198000000
  H   -1.66020644000000      0.54455607000000     -2.34898718000000
  C   1.65997348000000      0.05947061000000     -1.48765632000000
  C   2.74378865000000     -0.13533537000000     -2.44432994000000
  S   0.72604248000000      0.26060772000000     -3.96849176000000
  C   2.40133213000000      0.00350952000000     -3.77414031000000
  H   2.02827359000000      1.13751186000000     -0.59613916000000
  H   3.79496001000000     -0.22941456000000     -2.18232937000000
  H   3.05659557000000     -0.03226442000000     -4.65164361000000
  H   -0.91932879000000     -3.49310027000000      1.23851007000000
  H   -0.19480900000000     -2.02005061000000      3.35344918000000
  H   2.38192560000000     -1.31007217000000      2.99829254000000
  O   2.01667244000000      2.02343451000000      0.30405169000000
  O   0.33363558000000      1.14826230000000      1.53372753000000
  C   1.10098917000000      2.06393113000000      1.21167435000000
  C   0.90540593000000      3.41272441000000      1.92327874000000
  H   0.86979527000000      4.24528986000000      1.20121841000000
  H   1.75731755000000      3.63331111000000      2.57225951000000
  H   -0.00332461000000      3.49135617000000      2.55736097000000
  H   3.12220352000000     -2.11783309000000      0.55971254000000
  H   1.03206858000000     -3.43450812000000     -0.55434854000000
