39
Coordinates from ORCA-job 7_6_orca
  Ir  0.61336642000000     -0.76190348000000      0.60782319000000
  C   -0.02899018000000     -2.88754158000000      1.33699262000000
  C   0.40029676000000     -2.10150995000000      2.43912824000000
  C   2.14775915000000     -2.26289697000000      0.96196680000000
  C   1.00032784000000     -2.87480944000000      0.35793711000000
  C   1.76233073000000     -1.73985927000000      2.22155815000000
  N   -1.06787571000000     -0.09921881000000     -0.50728909000000
  C   -2.46317593000000     -0.06419849000000      0.02383364000000
  C   -2.84848177000000      1.28596814000000      0.63990523000000
  H   -3.89699845000000      1.23841506000000      0.94979560000000
  H   -2.76550721000000      2.09318551000000     -0.09146117000000
  H   -2.23295594000000      1.53479840000000      1.50887725000000
  C   -3.49022920000000     -0.48451804000000     -1.02720370000000
  H   -2.48397710000000     -0.81495045000000      0.82672652000000
  H   -4.44798634000000     -0.62077478000000     -0.53412696000000
  H   -3.64816950000000      0.27352382000000     -1.80145763000000
  H   -3.22245410000000     -1.43044832000000     -1.51012479000000
  C   -0.83011271000000      0.24681233000000     -1.71167509000000
  C   0.50612052000000      0.18930044000000     -2.22667769000000
  H   -1.66593620000000      0.55413500000000     -2.35381001000000
  C   1.66973251000000      0.12610690000000     -1.48520353000000
  C   2.74559326000000     -0.11019468000000     -2.42273030000000
  S   0.72281328000000      0.23907263000000     -3.93302744000000
  C   2.39821246000000     -0.01678476000000     -3.75014691000000
  H   1.90273925000000      1.09352496000000     -0.45589280000000
  H   3.79585574000000     -0.21957831000000     -2.18498796000000
  H   3.04053133000000     -0.03267685000000     -4.64188958000000
  H   -0.97074339000000     -3.43189974000000      1.25977315000000
  H   -0.14978732000000     -1.99263375000000      3.36166946000000
  H   2.42877802000000     -1.28139889000000      2.95699647000000
  O   1.99573839000000      2.00483946000000      0.27935668000000
  O   0.36303907000000      1.11795871000000      1.50682104000000
  C   1.11375638000000      2.08250250000000      1.20350221000000
  C   0.90904823000000      3.38692774000000      1.92358934000000
  H   0.86679867000000      4.21937365000000      1.21741572000000
  H   1.74331991000000      3.61866611000000      2.58254848000000
  H   -0.00009898000000      3.47007163000000      2.55103047000000
  H   3.10789984000000     -2.12204335000000      0.49779535000000
  H   0.97804384000000     -3.42695207000000     -0.57243842000000
