21
Coordinates from ORCA-job 3_2_orca
  Sc  1.51112858000000     -1.09308925000000     -1.65726124000000
  C   0.40486102000000     -0.58227519000000      0.23882093000000
  N   -0.47761816000000     -1.34199334000000      0.91884395000000
  C   -0.79164852000000     -0.79174333000000      2.13716625000000
  C   -0.13280979000000      0.40677456000000      2.20613173000000
  N   0.53874579000000      0.53183837000000      1.00843123000000
  C   1.42194745000000      1.65428187000000      0.63134849000000
  H   1.45489640000000      2.34862703000000      1.47477300000000
  H   1.02575121000000      2.17160408000000     -0.23669950000000
  H   2.43992877000000      1.29636920000000      0.45637683000000
  C   -0.97781052000000     -2.65892212000000      0.54682096000000
  H   -0.61333108000000     -2.93137686000000     -0.44269784000000
  H   -2.06511648000000     -2.65492114000000      0.51345968000000
  H   -0.64938343000000     -3.41583245000000      1.26048851000000
  H   -1.40514895000000     -1.24160971000000      2.86364703000000
  H   -0.10528157000000      1.15105753000000      2.94231936000000
  C   -0.32005711000000      1.52502912000000     -2.91406164000000
  H   -0.98534063000000      1.67042565000000     -3.77995556000000
  H   0.50260230000000      2.38775948000000     -3.00034212000000
  H   -0.77355849000000      1.62742113000000     -1.96666714000000
  H   -0.00010126000000     -0.05626971000000     -3.20262231000000
