21
Generated by autodE on: 2023-07-15. 
C    -1.44737   0.17789  -0.55344
C    -2.06554  -0.87051  -1.23271
C    -1.66759  -2.18295  -0.97423
C    -0.80107  -2.43911   0.09091
C    -0.38445  -0.07574   0.31149
C    -0.20097  -1.37945   0.75512
H    -1.76020   1.18718  -0.77486
H    -2.77165  -0.65806  -2.04169
H    -1.98802  -2.99409  -1.63361
H     0.48587  -1.58144   1.55680
H    -0.49687  -3.46282   0.31817
Pd    1.23697   0.96341  -0.03994
O     3.12252   1.25736  -1.18074
O     2.51324  -0.63842  -0.28629
O     0.30121   2.77926   0.29356
C    -0.15745   2.93040   1.38118
O    -0.04983   2.11960   2.38396
H    -0.71797   1.42218   2.40714
C     3.32116   0.04549  -0.98027
H     4.20169  -0.46454  -1.41211
H    -0.69888   3.82342   1.58277
