21
Coordinates from ORCA-job reaction-0-cineb10_optts_Compound_2_IRC_F
  C   -1.18501144330753      0.15627208403059     -1.02649744729082
  C   -2.28899404351933     -0.69080639351275     -1.01517059663604
  C   -2.23341190865353     -1.90611807014571     -0.35157729520800
  C   -1.06118030151842     -2.27541032809544      0.29423492391172
  C   -0.00871538300892     -0.20856529451710     -0.37620902428151
  C   0.04463021931122     -1.43637396963533      0.27953969299436
  H   -1.25538098471069      1.09500349319015     -1.56472750320916
  H   -3.19208247302431     -0.39794098253033     -1.53665784250854
  H   -3.09090288482817     -2.56617787312996     -0.34739543579076
  H   0.95123683760663     -1.75119444036919      0.78186839546947
  H   -1.00281948743760     -3.22736114949350      0.80768681412573
  Pd  1.53926552970616      0.96608953571956     -0.31696076655971
  O   3.68181316189715      1.63965024825812     -0.47721758458881
  O   2.95042348745320     -0.39260488407804     -0.82469393758760
  O   0.26116386993940      2.50216211885767      0.27531111339794
  C   -0.49365443544743      2.35775115709218      1.20969857124240
  O   -0.37683833527312      1.36710409694278      2.05011799926796
  H   -1.15077418162041      1.25919938040120      2.61308204976347
  C   3.89338980734736      0.45403786251298     -0.77762031019255
  H   4.90883658708419      0.10028403447683     -1.01153736432579
  H   -1.29896524030758      3.07966086159133      1.38944161368631
