21
Coordinates from ORCA-job reaction-0-cineb10_optts_Compound_2_IRC_B
  C   -1.19633854441829      0.14332675956248     -1.00285373707359
  C   -2.29323665373053     -0.70672900013414     -1.00897813505508
  C   -2.24074404462278     -1.92532738173209     -0.34694074716811
  C   -1.07963625831159     -2.29669906222256      0.31216017357273
  C   -0.02535789333315     -0.22271011052778     -0.33769381932082
  C   0.02662084170265     -1.45385016421629      0.31329768844788
  H   -1.26216753707580      1.08610445645069     -1.53379424847223
  H   -3.19239854184844     -0.41312264134569     -1.53586329450866
  H   -3.09881987842038     -2.58375531174642     -0.35192288567337
  H   0.93815990737824     -1.77518416197028      0.80345238278850
  H   -1.02350019180579     -3.25067481565955      0.82029740840288
  Pd  1.51813122699174      0.95326886857142     -0.29488108753473
  O   3.65349619219926      1.64340504507998     -0.47893097268072
  O   2.93441727861102     -0.39577454688541     -0.79623497195940
  O   0.25424443331676      2.46373967238669      0.31032172764000
  C   -0.48956373733134      2.47953466715704      1.27393251594693
  O   -0.73593885391341      1.52065059361869      2.11216594198613
  H   -0.36569871837738      0.66452164125740      1.82251912178458
  C   3.87405033832784      0.45743601149904     -0.76935822947616
  H   4.88950774762256      0.10834550300455     -1.01009209718897
  H   -1.04389158377419      3.38704288242631      1.51984853253867
