30
Coordinates from ORCA-job 5_10_orca
  Lu  0.08851925000000      0.27389750000000     -0.15108646000000
  C   0.38384612000000      0.88976817000000      2.42049701000000
  C   1.36329630000000     -0.07456003000000      2.14653549000000
  C   2.29218310000000      0.42363871000000      1.23144597000000
  C   1.90987587000000      1.76221425000000      0.97769920000000
  C   0.72311850000000      2.04098104000000      1.65108204000000
  H   2.47881670000000      2.45492306000000      0.38126559000000
  H   0.23374699000000      2.99389063000000      1.71070388000000
  H   -0.36915917000000      0.80523055000000      3.15983321000000
  H   1.37364572000000     -1.06281959000000      2.58227406000000
  H   3.23495307000000     -0.00782275000000      0.98324030000000
  C   0.99037770000000     -0.09724046000000     -2.56048673000000
  C   -0.30641249000000     -0.62618615000000     -2.52811637000000
  C   1.03505724000000     -1.92588478000000     -1.22445908000000
  C   1.83121905000000     -0.86874136000000     -1.71009404000000
  H   1.31567876000000      0.75364054000000     -3.11770867000000
  C   -0.25955239000000     -1.81468157000000     -1.75096219000000
  H   -1.11662605000000     -0.31551041000000     -3.16251913000000
  H   2.87716361000000     -0.78053218000000     -1.63200824000000
  H   1.38656152000000     -2.76241927000000     -0.64842609000000
  H   -1.04788428000000     -2.51236023000000     -1.57592331000000
  C   -2.59999436000000     -1.52632177000000      1.27051308000000
  H   -2.17871478000000     -1.40297001000000      2.31793743000000
  H   -2.05242701000000     -2.44448204000000      0.97127687000000
  H   -3.70985864000000     -1.45257230000000      1.23047002000000
  C   -1.71647935000000      1.76989857000000     -0.81459138000000
  H   -2.23058824000000     -0.56459159000000      0.67555571000000
  H   -1.27862518000000      2.60636197000000     -1.38881744000000
  H   -2.28535623000000      2.24990627000000      0.00257639000000
  H   -2.44244615000000      1.29826411000000     -1.49986478000000
