30
Coordinates from ORCA-job 5_11_orca
  Lu  0.06034755000000      0.34297615000000     -0.18743835000000
  C   0.38224846000000      0.92907613000000      2.41509890000000
  C   1.34641407000000     -0.07233485000000      2.16369734000000
  C   2.30715337000000      0.43849405000000      1.26716511000000
  C   1.93386705000000      1.77480466000000      0.96696586000000
  C   0.74795729000000      2.08138598000000      1.67472530000000
  H   2.50663030000000      2.46470357000000      0.37529693000000
  H   0.22464068000000      3.01696204000000      1.66578955000000
  H   -0.37391387000000      0.85835218000000      3.16545566000000
  H   1.34103861000000     -1.04981678000000      2.61441996000000
  H   3.22757424000000     -0.03299061000000      0.99903975000000
  C   1.01382163000000     -0.08650743000000     -2.57831840000000
  C   -0.28925747000000     -0.63982216000000     -2.59271242000000
  C   1.03107786000000     -1.94235090000000     -1.24765899000000
  C   1.83632057000000     -0.88564327000000     -1.73784601000000
  H   1.33576805000000      0.77306429000000     -3.13150347000000
  C   -0.26755366000000     -1.79306507000000     -1.77328677000000
  H   -1.11446100000000     -0.28052934000000     -3.17612156000000
  H   2.89006828000000     -0.79998979000000     -1.62135041000000
  H   1.35646752000000     -2.77503276000000     -0.65326404000000
  H   -1.04714998000000     -2.51714108000000     -1.64093581000000
  C   -2.53826093000000     -1.51827076000000      1.31364946000000
  H   -2.23421617000000     -1.48367490000000      2.35951523000000
  H   -2.20887542000000     -2.57193092000000      1.03747432000000
  H   -3.61658749000000     -1.30130992000000      1.15948619000000
  C   -1.74415112000000      1.74899226000000     -0.78199498000000
  H   -2.02616612000000     -0.72829444000000      0.72291978000000
  H   -1.34632139000000      2.58477121000000     -1.37017117000000
  H   -2.32080171000000      2.23855434000000      0.00734514000000
  H   -2.47822163000000      1.28835177000000     -1.45021452000000
