30
Coordinates from ORCA-job 5_13_orca
  Lu  0.07326803000000      0.31236253000000     -0.17154571000000
  C   0.38703305000000      0.91368109000000      2.41135588000000
  C   1.35228608000000     -0.08414638000000      2.15875975000000
  C   2.29938706000000      0.43822516000000      1.25356896000000
  C   1.92384711000000      1.76700651000000      0.96533459000000
  C   0.73099401000000      2.05587365000000      1.67025373000000
  H   2.48823609000000      2.45904821000000      0.37461109000000
  H   0.22488662000000      3.00495149000000      1.68710460000000
  H   -0.37875106000000      0.83038506000000      3.16387017000000
  H   1.36342520000000     -1.05582906000000      2.60251939000000
  H   3.23093046000000     -0.02332004000000      0.98657279000000
  C   1.00528319000000     -0.09057260000000     -2.56154846000000
  C   -0.29861622000000     -0.64208132000000     -2.56123946000000
  C   1.03482544000000     -1.93827404000000     -1.23477432000000
  C   1.82128563000000     -0.87784449000000     -1.73061665000000
  H   1.32330510000000      0.76759963000000     -3.12313443000000
  C   -0.26329302000000     -1.79752443000000     -1.76158086000000
  H   -1.11955242000000     -0.29692026000000     -3.16496684000000
  H   2.88893778000000     -0.78699374000000     -1.62244517000000
  H   1.37465474000000     -2.77079332000000     -0.65111225000000
  H   -1.05240250000000     -2.51669654000000     -1.60933157000000
  C   -2.55263350000000     -1.49987867000000      1.31308107000000
  H   -2.21983926000000     -1.43591829000000      2.32107755000000
  H   -2.14376091000000     -2.50726151000000      0.99550271000000
  H   -3.64484280000000     -1.37677839000000      1.18448545000000
  C   -1.72671820000000      1.75688898000000     -0.79584778000000
  H   -2.11420516000000     -0.67002742000000      0.70767268000000
  H   -1.31033031000000      2.59314420000000     -1.37765582000000
  H   -2.30564822000000      2.24652431000000      0.00050836000000
  H   -2.46066517000000      1.29728281000000     -1.47483867000000
