30
Coordinates from ORCA-job 5_14_orca
  Lu  0.10990718000000      0.25689843000000     -0.14436044000000
  C   0.39083546000000      0.87385004000000      2.41318374000000
  C   1.36359797000000     -0.09759328000000      2.14396614000000
  C   2.28327866000000      0.43774200000000      1.23783883000000
  C   1.89399248000000      1.74736217000000      0.96250612000000
  C   0.69727380000000      2.01351952000000      1.65463180000000
  H   2.44724425000000      2.44856325000000      0.36198882000000
  H   0.22010426000000      2.97458884000000      1.72577341000000
  H   -0.39803313000000      0.77993506000000      3.15062668000000
  H   1.41850968000000     -1.07234963000000      2.59336320000000
  H   3.23101557000000     -0.00962228000000      0.95366727000000
  C   0.97762140000000     -0.09223803000000     -2.52648417000000
  C   -0.31657934000000     -0.64264123000000     -2.50561907000000
  C   1.03783523000000     -1.93117728000000     -1.21416302000000
  C   1.80415913000000     -0.86951109000000     -1.71624599000000
  H   1.29577122000000      0.76274744000000     -3.10134372000000
  C   -0.25996642000000     -1.81577137000000     -1.73491476000000
  H   -1.13318721000000     -0.32783284000000     -3.13312045000000
  H   2.87734942000000     -0.75606164000000     -1.61646786000000
  H   1.41622689000000     -2.76669042000000     -0.64817665000000
  H   -1.06956960000000     -2.50998158000000     -1.55534305000000
  C   -2.57710072000000     -1.47394166000000      1.27445852000000
  H   -2.20671137000000     -1.32021774000000      2.28078564000000
  H   -2.06672025000000     -2.35377318000000      0.90698758000000
  H   -3.62610933000000     -1.51059796000000      1.21402077000000
  C   -1.69638748000000      1.77075314000000     -0.81870983000000
  H   -2.23422068000000     -0.61582680000000      0.70267191000000
  H   -1.23755897000000      2.60653443000000     -1.38982078000000
  H   -2.28423784000000      2.26658921000000     -0.01643601000000
  H   -2.43035517000000      1.31861295000000     -1.51951485000000
