30
Coordinates from ORCA-job 5_2_orca
  Lu  0.12244275000000      0.42631934000000     -0.24123788000000
  C   0.38997280000000      1.00319436000000      2.43149339000000
  C   1.30548304000000     -0.04310680000000      2.19181405000000
  C   2.32157020000000      0.47797890000000      1.36824644000000
  C   1.93820837000000      1.78246770000000      0.95493258000000
  C   0.77019256000000      2.11783500000000      1.66389535000000
  H   2.52816283000000      2.46684739000000      0.32314674000000
  H   0.19188031000000      3.04600176000000      1.58098564000000
  H   -0.44556903000000      0.97828781000000      3.13954677000000
  H   1.34330116000000     -1.00859687000000      2.73030800000000
  H   3.18330704000000     -0.09775375000000      0.99658309000000
  C   1.02703826000000     -0.05684054000000     -2.57330436000000
  C   -0.24974827000000     -0.64603941000000     -2.67680845000000
  C   1.00536915000000     -1.96612654000000     -1.30848696000000
  C   1.83209737000000     -0.93753826000000     -1.81003517000000
  H   1.36146731000000      0.82761574000000     -3.13003083000000
  C   -0.28108937000000     -1.78236196000000     -1.84537848000000
  H   -1.12723259000000     -0.21672466000000     -3.17416711000000
  H   2.89574593000000     -0.80984202000000     -1.56695919000000
  H   1.33157697000000     -2.81264830000000     -0.68597434000000
  H   -1.09806409000000     -2.50218642000000     -1.79831550000000
  C   -2.17485972000000     -1.66508041000000      1.32784543000000
  H   -2.45693010000000     -1.49997139000000      2.48414220000000
  H   -2.78615541000000     -2.62796913000000      1.11255497000000
  H   -3.05271105000000     -0.94480056000000      0.92195437000000
  C   -1.81359633000000      1.71216116000000     -0.70868002000000
  H   -1.54698886000000     -1.32896701000000      0.98115771000000
  H   -1.45417723000000      2.57000880000000     -1.34928564000000
  H   -2.46902524000000      2.27930390000000      0.03580489000000
  H   -2.61098457000000      1.26983156000000     -1.37955425000000
