30
Coordinates from ORCA-job 5_3_orca
  Lu  0.15571435000000      0.40925745000000     -0.23660704000000
  C   0.37863504000000      1.00532556000000      2.43444514000000
  C   1.31090495000000     -0.04627094000000      2.22196536000000
  C   2.31902780000000      0.46466908000000      1.34840994000000
  C   1.94815720000000      1.79450069000000      0.95390045000000
  C   0.74684536000000      2.12439171000000      1.64393751000000
  H   2.51172001000000      2.44691123000000      0.32482636000000
  H   0.19986356000000      3.03161307000000      1.58014661000000
  H   -0.45872632000000      0.99003872000000      3.12142393000000
  H   1.35515433000000     -0.97621162000000      2.73179589000000
  H   3.16501519000000     -0.09555464000000      0.99700164000000
  C   1.03328756000000     -0.05105483000000     -2.58506259000000
  C   -0.27248209000000     -0.62278792000000     -2.65767428000000
  C   1.00302409000000     -1.98547453000000     -1.30880675000000
  C   1.83962170000000     -0.92481362000000     -1.79925113000000
  H   1.35745418000000      0.81840624000000     -3.11473264000000
  C   -0.28004540000000     -1.79373646000000     -1.86499870000000
  H   -1.11726665000000     -0.22075230000000     -3.16750859000000
  H   2.87970819000000     -0.80689114000000     -1.56125883000000
  H   1.33115475000000     -2.79897100000000     -0.70623017000000
  H   -1.10955794000000     -2.48681784000000     -1.81226772000000
  C   -2.25306204000000     -1.66449538000000      1.34096437000000
  H   -2.47532249000000     -1.48018472000000      2.50066052000000
  H   -2.85331091000000     -2.63020288000000      1.10340188000000
  H   -2.93543764000000     -0.89580416000000      0.88325648000000
  C   -1.83968357000000      1.72822392000000     -0.71229355000000
  H   -1.38855858000000     -1.44835558000000      1.01886780000000
  H   -1.45682220000000      2.57032257000000     -1.34820709000000
  H   -2.48410933000000      2.28759778000000      0.04330669000000
  H   -2.62391652000000      1.26457409000000     -1.37576473000000
