21
Coordinates from ORCA-job 2_10_orca
  C   -1.85938593000000      0.16567331000000     -0.21499345000000
  C   -1.78534976000000     -0.72589164000000     -1.25958566000000
  C   -1.14720063000000     -1.92483731000000     -1.10228474000000
  C   -0.49775974000000     -2.24662476000000      0.05528288000000
  C   -1.25988332000000     -0.19762385000000      1.00111820000000
  C   -0.52781861000000     -1.38568185000000      1.12798991000000
  H   -2.34993474000000      1.15049751000000     -0.29731076000000
  H   -2.23913670000000     -0.42463789000000     -2.15376092000000
  H   -1.15883191000000     -2.61706889000000     -1.88960941000000
  H   -0.00103076000000     -1.58127618000000      2.07621308000000
  H   0.03597157000000     -3.13689242000000      0.19775206000000
  Pd  1.51641709000000      1.29855265000000      0.09159456000000
  O   2.53681025000000      0.87043240000000     -1.60735343000000
  O   2.62406293000000     -0.40908360000000      0.11901966000000
  O   0.37211594000000      2.93229648000000     -0.05743432000000
  C   0.14791196000000      2.94453627000000      1.17813137000000
  O   0.65163899000000      2.03821394000000      1.89621121000000
  H   -1.35682107000000      0.41623927000000      1.82428626000000
  C   3.00433188000000     -0.15114335000000     -1.04872563000000
  H   3.76662305000000     -0.76185933000000     -1.53679946000000
  H   -0.47888153000000      3.74832253000000      1.60193503000000
