21
Coordinates from ORCA-job 2_12_orca
  C   -1.84415034000000      0.16850705000000     -0.20352873000000
  C   -1.82831481000000     -0.72675028000000     -1.26962130000000
  C   -1.19615389000000     -1.95173851000000     -1.09420174000000
  C   -0.51366639000000     -2.27967822000000      0.06957077000000
  C   -1.24095047000000     -0.19585050000000      0.98180775000000
  C   -0.52948013000000     -1.36947553000000      1.12155935000000
  H   -2.32437122000000      1.14856387000000     -0.28994085000000
  H   -2.30096997000000     -0.42979299000000     -2.20246680000000
  H   -1.22547846000000     -2.66048349000000     -1.88763260000000
  H   -0.00124785000000     -1.56824559000000      2.05844378000000
  H   0.03451753000000     -3.21071599000000      0.20011987000000
  Pd  1.52408326000000      1.31247161000000      0.10779068000000
  O   2.55170424000000      0.89722781000000     -1.59311865000000
  O   2.64033650000000     -0.39600976000000      0.13079204000000
  O   0.39900380000000      2.95310737000000     -0.05954586000000
  C   0.15045892000000      2.94069222000000      1.17824084000000
  O   0.64403904000000      2.02515723000000      1.87777549000000
  H   -1.29258998000000      0.46902167000000      1.82260047000000
  C   3.03008680000000     -0.12263386000000     -1.03078685000000
  H   3.79494736000000     -0.72653469000000     -1.52354259000000
  H   -0.47858142000000      3.73291508000000      1.60520711000000
