21
Coordinates from ORCA-job 2_13_orca
  C   -1.84257359000000      0.17325711000000     -0.19771440000000
  C   -1.84265724000000     -0.71655826000000     -1.26272504000000
  C   -1.21162018000000     -1.95876416000000     -1.09056471000000
  C   -0.51744073000000     -2.28153602000000      0.08615314000000
  C   -1.23276960000000     -0.18403263000000      0.98713449000000
  C   -0.53145691000000     -1.36382366000000      1.12563067000000
  H   -2.31073639000000      1.13969604000000     -0.29497829000000
  H   -2.31640342000000     -0.44173654000000     -2.20843103000000
  H   -1.25164146000000     -2.69064791000000     -1.90180834000000
  H   0.00000409000000     -1.56658225000000      2.04040123000000
  H   0.02228687000000     -3.22611092000000      0.19412572000000
  Pd  1.52428009000000      1.31391645000000      0.11626470000000
  O   2.56001928000000      0.90645738000000     -1.58942993000000
  O   2.64148964000000     -0.39149603000000      0.13270473000000
  O   0.40618632000000      2.95849933000000     -0.05578047000000
  C   0.15109129000000      2.94132522000000      1.18092293000000
  O   0.64117079000000      2.02588678000000      1.87096923000000
  H   -1.26994197000000      0.47453065000000      1.80825582000000
  C   3.04484840000000     -0.10998057000000     -1.02472798000000
  H   3.80913520000000     -0.71856844000000     -1.52276334000000
  H   -0.48009046000000      3.72856677000000      1.60486661000000
