21
Coordinates from ORCA-job 2_16_orca
  C   -1.83946197000000      0.17178145000000     -0.19543199000000
  C   -1.84335567000000     -0.72020885000000     -1.25242540000000
  C   -1.21943439000000     -1.97029371000000     -1.09857219000000
  C   -0.52871329000000     -2.27466223000000      0.08753633000000
  C   -1.22316267000000     -0.17724811000000      0.98552028000000
  C   -0.53610793000000     -1.36143763000000      1.12511751000000
  H   -2.30281003000000      1.13150710000000     -0.30461860000000
  H   -2.32575014000000     -0.46065883000000     -2.21102646000000
  H   -1.26881483000000     -2.70986306000000     -1.91100966000000
  H   0.00310707000000     -1.57027866000000      2.02634054000000
  H   0.00660815000000     -3.23553029000000      0.18176229000000
  Pd  1.51939936000000      1.31011619000000      0.11523647000000
  O   2.56658172000000      0.91022639000000     -1.58578596000000
  O   2.64746640000000     -0.38510751000000      0.13405569000000
  O   0.41335893000000      2.96809532000000     -0.05197533000000
  C   0.15266183000000      2.95032807000000      1.18128266000000
  O   0.64245276000000      2.02762591000000      1.87027692000000
  H   -1.26176398000000      0.50423539000000      1.83606903000000
  C   3.05787729000000     -0.10142305000000     -1.02028846000000
  H   3.81858843000000     -0.71643477000000     -1.52436773000000
  H   -0.48495857000000      3.72614493000000      1.60870764000000
