21
Coordinates from ORCA-job 2_5_orca
  C   -1.83123637000000      0.17233181000000     -0.12174195000000
  C   -1.69304738000000     -0.67760932000000     -1.26312056000000
  C   -1.02189712000000     -1.88972377000000     -1.15975349000000
  C   -0.42334756000000     -2.18234428000000      0.05734083000000
  C   -1.33347135000000     -0.12349930000000      1.15843566000000
  C   -0.57014047000000     -1.29911582000000      1.17203527000000
  H   -2.39769822000000      1.08200697000000     -0.34364589000000
  H   -2.16240582000000     -0.42958920000000     -2.23045297000000
  H   -0.99054719000000     -2.58692190000000     -1.99195792000000
  H   -0.02264961000000     -1.63534905000000      2.05802033000000
  H   0.11368287000000     -3.14252916000000      0.14566477000000
  Pd  1.42872957000000      1.24880092000000      0.09171623000000
  O   2.49857606000000      0.79310715000000     -1.66675211000000
  O   2.59440428000000     -0.43299242000000      0.09393066000000
  O   0.33074808000000      2.90926992000000     -0.04949991000000
  C   0.14376386000000      2.97582940000000      1.17746684000000
  O   0.68594625000000      2.08829294000000      1.91695460000000
  H   -1.54386696000000      0.43142563000000      2.02238531000000
  C   2.98366708000000     -0.19712755000000     -1.08085283000000
  H   3.69484995000000     -0.88045326000000     -1.59458935000000
  H   -0.48522725000000      3.77178258000000      1.60894547000000
