21
Coordinates from ORCA-job 2_8_orca
  C   -1.86002402000000      0.18206257000000     -0.17658226000000
  C   -1.74689847000000     -0.68088139000000     -1.22689454000000
  C   -1.09296645000000     -1.89719631000000     -1.11422441000000
  C   -0.46809363000000     -2.19095595000000      0.08775361000000
  C   -1.28129408000000     -0.19888426000000      1.02039450000000
  C   -0.54049767000000     -1.35564352000000      1.16225453000000
  H   -2.36001319000000      1.10747486000000     -0.32399655000000
  H   -2.19485585000000     -0.43352202000000     -2.16175274000000
  H   -1.09094042000000     -2.62735352000000     -1.95587062000000
  H   -0.01164876000000     -1.60418020000000      2.04842780000000
  H   0.05326647000000     -3.11573851000000      0.17371232000000
  Pd  1.48428177000000      1.27229134000000      0.09239789000000
  O   2.52389982000000      0.84390253000000     -1.63553844000000
  O   2.60282291000000     -0.42185204000000      0.10698406000000
  O   0.34965507000000      2.91538106000000     -0.05414363000000
  C   0.14445773000000      2.95304672000000      1.19667500000000
  O   0.66017473000000      2.07182564000000      1.89941710000000
  H   -1.43603031000000      0.40591472000000      1.89106802000000
  C   2.99855524000000     -0.17298873000000     -1.06338956000000
  H   3.74214547000000     -0.81419533000000     -1.56333525000000
  H   -0.48042634000000      3.75889244000000      1.59861774000000
