21
Coordinates from ORCA-job 2_9_orca
  C   -1.86110899000000      0.17459914000000     -0.19735052000000
  C   -1.75957879000000     -0.70008818000000     -1.25130294000000
  C   -1.10800999000000     -1.90247160000000     -1.10776561000000
  C   -0.47326820000000     -2.22032254000000      0.06878528000000
  C   -1.27717430000000     -0.18973558000000      1.02741732000000
  C   -0.53326788000000     -1.37233749000000      1.14758229000000
  H   -2.35988368000000      1.12403020000000     -0.31359829000000
  H   -2.20439384000000     -0.43018805000000     -2.15281614000000
  H   -1.10830637000000     -2.61765594000000     -1.93077403000000
  H   -0.00847918000000     -1.59674600000000      2.06252700000000
  H   0.04671336000000     -3.11472503000000      0.18207462000000
  Pd  1.49410132000000      1.27991822000000      0.08862574000000
  O   2.52662661000000      0.85063208000000     -1.62612521000000
  O   2.61118397000000     -0.41787255000000      0.11072224000000
  O   0.35630312000000      2.92116285000000     -0.05581719000000
  C   0.14607772000000      2.95099109000000      1.18879512000000
  O   0.65839711000000      2.06030094000000      1.90071043000000
  H   -1.41483509000000      0.40983167000000      1.87372059000000
  C   2.99752867000000     -0.16872375000000     -1.06010785000000
  H   3.74670262000000     -0.79794366000000     -1.55418689000000
  H   -0.48033575000000      3.75636426000000      1.60079080000000
