27
Coordinates from ORCA-job 5_0_orca
  Pd  -2.19206523000000     -1.65152125000000      0.76947607000000
  Cl  -3.52050260000000     -3.29121054000000     -0.17547698000000
  Cl  -0.79762100000000     -4.56788743000000      1.48569597000000
  Cl  -3.97332471000000     -0.23391793000000      0.69525738000000
  N   -0.93775528000000     -0.10801461000000      1.42641208000000
  C   -1.25678356000000      0.43820279000000      2.58595069000000
  C   -0.77014341000000      1.67779469000000      3.00757701000000
  C   0.08685500000000      2.34763264000000      2.17169500000000
  C   -0.07757140000000      0.50731810000000      0.59057913000000
  C   0.44932495000000      1.76672544000000      0.94885707000000
  H   0.48360261000000      3.31212500000000      2.46707969000000
  H   -1.95043899000000     -0.11224195000000      3.20811026000000
  H   -1.06896237000000      2.08300339000000      3.96349165000000
  C   0.34154297000000     -0.16564438000000     -0.60832122000000
  C   1.33765321000000      2.43116868000000      0.04838056000000
  C   1.67853088000000      1.84969356000000     -1.12266478000000
  C   1.21082088000000      0.54257740000000     -1.46844524000000
  H   1.72447900000000      3.40844920000000      0.30930382000000
  H   2.34272374000000      2.37664208000000     -1.79840377000000
  C   -0.05720955000000     -1.48277439000000     -0.92885254000000
  C   1.65109204000000     -0.05567739000000     -2.65795035000000
  C   0.36327060000000     -2.00876567000000     -2.13466383000000
  C   1.25677436000000     -1.33154859000000     -2.97144074000000
  H   2.31004335000000      0.47794874000000     -3.33244908000000
  H   1.61531142000000     -1.77970333000000     -3.89310434000000
  H   -0.29522488000000     -3.43766646000000     -0.13254023000000
  H   0.04557249000000     -2.99270781000000     -2.45355876000000
