27
Coordinates from ORCA-job 5_2_orca
  Pd  -2.14409368000000     -1.68749436000000      0.66075739000000
  Cl  -3.51385334000000     -3.25826267000000     -0.15842705000000
  Cl  -0.73393213000000     -4.45485754000000      1.34176941000000
  Cl  -3.97385448000000     -0.21506446000000      0.71827854000000
  N   -0.97268844000000     -0.12293631000000      1.43274409000000
  C   -1.27137960000000      0.43677612000000      2.59048784000000
  C   -0.76260759000000      1.66571376000000      3.01185562000000
  C   0.08509010000000      2.34356144000000      2.17023070000000
  C   -0.06657695000000      0.48634342000000      0.61671071000000
  C   0.45088099000000      1.77264306000000      0.94778648000000
  H   0.48422409000000      3.30799984000000      2.45571946000000
  H   -1.95207301000000     -0.11009880000000      3.20537413000000
  H   -1.06798711000000      2.07643290000000      3.95980953000000
  C   0.34141250000000     -0.19163454000000     -0.60441747000000
  C   1.33445673000000      2.43708996000000      0.05126599000000
  C   1.67874452000000      1.85198756000000     -1.12589906000000
  C   1.21300641000000      0.54984280000000     -1.47915863000000
  H   1.72025977000000      3.40597478000000      0.31152531000000
  H   2.33839928000000      2.36871424000000     -1.80237449000000
  C   -0.08312564000000     -1.57506834000000     -0.88759758000000
  C   1.66363518000000     -0.05496740000000     -2.66270237000000
  C   0.37448848000000     -2.02301931000000     -2.13025431000000
  C   1.23759465000000     -1.31475423000000     -2.98949172000000
  H   2.31486003000000      0.48562964000000     -3.32446383000000
  H   1.60915771000000     -1.78531530000000     -3.88909669000000
  H   -0.35578746000000     -3.39556355000000      0.02674238000000
  H   0.04577014000000     -3.00056355000000     -2.44614256000000
