27
Coordinates from ORCA-job 5_3_orca
  Pd  -2.14250866000000     -1.67705694000000      0.65727452000000
  Cl  -3.52026518000000     -3.25953650000000     -0.15893660000000
  Cl  -0.72956568000000     -4.43287296000000      1.32633575000000
  Cl  -3.96619830000000     -0.21275145000000      0.71400207000000
  N   -0.96496424000000     -0.12193702000000      1.42786496000000
  C   -1.27166614000000      0.43257268000000      2.58817864000000
  C   -0.76134675000000      1.66462165000000      3.01220155000000
  C   0.08545959000000      2.34266355000000      2.17088749000000
  C   -0.06799027000000      0.48280262000000      0.61246020000000
  C   0.44780388000000      1.76408302000000      0.94923914000000
  H   0.48338179000000      3.30685231000000      2.45530374000000
  H   -1.95538248000000     -0.11317240000000      3.20847854000000
  H   -1.06679597000000      2.07366886000000      3.96083693000000
  C   0.34019469000000     -0.20168402000000     -0.60169857000000
  C   1.33312335000000      2.43464787000000      0.04829904000000
  C   1.67544910000000      1.85132877000000     -1.12446036000000
  C   1.20617933000000      0.54100489000000     -1.47236429000000
  H   1.71890609000000      3.40784787000000      0.31196772000000
  H   2.33730437000000      2.36982232000000     -1.80455278000000
  C   -0.07275479000000     -1.56474116000000     -0.88829852000000
  C   1.66054634000000     -0.05412713000000     -2.66324904000000
  C   0.37150652000000     -2.02705830000000     -2.12341346000000
  C   1.23665668000000     -1.31670291000000     -2.98566388000000
  H   2.31642814000000      0.48808406000000     -3.32658575000000
  H   1.60885406000000     -1.78565172000000     -3.89102503000000
  H   -0.35978192000000     -3.38818375000000      0.04545680000000
  H   0.05076958000000     -3.00494315000000     -2.44698211000000
