27
Coordinates from ORCA-job 5_4_orca
  Pd  -2.12360343000000     -1.65786614000000      0.61317287000000
  Cl  -3.53809575000000     -3.25188752000000     -0.15453970000000
  Cl  -0.69699965000000     -4.32704522000000      1.23466953000000
  Cl  -3.94235422000000     -0.19816270000000      0.70660167000000
  N   -0.95937336000000     -0.12767943000000      1.42108887000000
  C   -1.27407131000000      0.42314191000000      2.58348972000000
  C   -0.75681954000000      1.65252036000000      3.01235259000000
  C   0.08434693000000      2.33396803000000      2.17158066000000
  C   -0.06667095000000      0.46580097000000      0.60823830000000
  C   0.44392124000000      1.74680810000000      0.95032933000000
  H   0.48166581000000      3.30283371000000      2.45032724000000
  H   -1.96469164000000     -0.12216818000000      3.21514102000000
  H   -1.06292192000000      2.06300196000000      3.96404507000000
  C   0.34085617000000     -0.23228186000000     -0.59333617000000
  C   1.32572159000000      2.42832198000000      0.04366203000000
  C   1.66391221000000      1.84670021000000     -1.12197924000000
  C   1.19201794000000      0.52133301000000     -1.46099374000000
  H   1.71206307000000      3.41094289000000      0.31360394000000
  H   2.33055265000000      2.36920919000000     -1.81184833000000
  C   -0.05561363000000     -1.57060517000000     -0.87223107000000
  C   1.65283450000000     -0.05257538000000     -2.66330927000000
  C   0.37330120000000     -2.04115444000000     -2.10867082000000
  C   1.22755305000000     -1.31969953000000     -2.98067664000000
  H   2.32067271000000      0.49730409000000     -3.32901805000000
  H   1.60490795000000     -1.78771618000000     -3.89361430000000
  H   -0.38983130000000     -3.35018903000000      0.15137317000000
  H   0.06626579000000     -3.02208715000000     -2.44588695000000
