27
Coordinates from ORCA-job 5_6_orca
  Pd  -2.10044602000000     -1.60830573000000      0.55405278000000
  Cl  -3.56645806000000     -3.24418978000000     -0.15675050000000
  Cl  -0.64342419000000     -4.16114931000000      1.10787587000000
  Cl  -3.90102803000000     -0.17665114000000      0.69860878000000
  N   -0.95949023000000     -0.14488504000000      1.41937787000000
  C   -1.27820175000000      0.40615174000000      2.58259823000000
  C   -0.75773259000000      1.62794273000000      3.01242664000000
  C   0.08307890000000      2.31063966000000      2.16708712000000
  C   -0.06026979000000      0.44700355000000      0.60549783000000
  C   0.44713581000000      1.73034659000000      0.94675923000000
  H   0.47736496000000      3.29229977000000      2.44043744000000
  H   -1.97456820000000     -0.13290164000000      3.21442964000000
  H   -1.05588580000000      2.04290935000000      3.96802550000000
  C   0.36152955000000     -0.24791885000000     -0.58007600000000
  C   1.31212872000000      2.41825872000000      0.04418829000000
  C   1.64338563000000      1.82786006000000     -1.12293639000000
  C   1.19173170000000      0.50506194000000     -1.45740541000000
  H   1.69494524000000      3.40436136000000      0.31351926000000
  H   2.30753313000000      2.35646322000000     -1.81603276000000
  C   -0.04521324000000     -1.58775971000000     -0.84626987000000
  C   1.63237127000000     -0.05741284000000     -2.65970885000000
  C   0.38759735000000     -2.06215010000000     -2.09494117000000
  C   1.21886050000000     -1.33392229000000     -2.97099528000000
  H   2.31282533000000      0.50278628000000     -3.31981420000000
  H   1.58937240000000     -1.78762376000000     -3.88979337000000
  H   -0.42352044000000     -3.27141717000000      0.28866470000000
  H   0.09127208000000     -3.05187247000000     -2.44078678000000
