9
Coordinates from ORCA-job 3_0_orca
  Pt  -1.00216567000000     -0.88420620000000      0.53807994000000
  Cl  -0.25659770000000     -0.57917390000000      2.74604651000000
  Cl  -2.71094976000000     -2.29113647000000      1.16588056000000
  Cl  -1.62910366000000     -1.08489525000000     -1.71085030000000
  C   1.03703522000000      1.03096117000000     -0.59756058000000
  H   1.44637133000000      1.88995824000000     -0.06798388000000
  H   1.32863525000000     -0.10832563000000      0.36425772000000
  H   1.70212647000000      0.71052271000000     -1.40092788000000
  H   0.08464852000000      1.31628963000000     -1.03693350000000
