9
Coordinates from ORCA-job 3_6_orca
  Pt  -0.95880045000000     -0.87575991000000      0.51585916000000
  Cl  -0.22911951000000     -0.49504779000000      2.67517834000000
  Cl  -2.65149191000000     -2.18419405000000      1.15732444000000
  Cl  -1.51618744000000     -1.10463600000000     -1.70862445000000
  C   1.06439654000000      0.94925978000000     -0.53508856000000
  H   1.47461241000000      1.75637626000000      0.04915981000000
  H   1.09347859000000      0.04122299000000      0.08343470000000
  H   1.64343561000000      0.71888956000000     -1.40252141000000
  H   0.06740604000000      1.19376639000000     -0.83331740000000
