30
Coordinates from ORCA-job 2_11_orca
  Lu  0.07642250000000      0.05600381000000     -0.01110032000000
  C   0.39402842000000      0.91059833000000      2.45915671000000
  C   1.37002086000000     -0.10003851000000      2.19724217000000
  C   2.30298152000000      0.41502194000000      1.27586039000000
  C   1.90692323000000      1.73053378000000      0.92232430000000
  C   0.73956436000000      2.04377729000000      1.66852463000000
  H   2.50361841000000      2.42358419000000      0.35528091000000
  H   0.19588219000000      2.97206146000000      1.63681456000000
  H   -0.39636301000000      0.85441853000000      3.15935566000000
  H   1.41558462000000     -1.05534284000000      2.68946127000000
  H   3.21680620000000     -0.07547485000000      0.99031650000000
  C   1.00174634000000     -0.07050628000000     -2.51081100000000
  C   -0.28693009000000     -0.65350117000000     -2.56523948000000
  C   1.03566882000000     -1.96816407000000     -1.23060520000000
  C   1.81893730000000     -0.89456940000000     -1.70164820000000
  H   1.34355233000000      0.76772531000000     -3.09675069000000
  C   -0.27815037000000     -1.82891367000000     -1.76574855000000
  H   -1.13534886000000     -0.25832345000000     -3.10092920000000
  H   2.88543395000000     -0.81665563000000     -1.59528602000000
  H   1.38844692000000     -2.80975667000000     -0.65644150000000
  H   -1.08197800000000     -2.50613380000000     -1.62495416000000
  C   -2.39721928000000     -1.39973917000000      1.21203117000000
  H   -2.22283029000000     -1.38921257000000      2.29587764000000
  H   -2.02232201000000     -2.39552651000000      0.92605597000000
  H   -3.50609933000000     -1.37024701000000      1.09245937000000
  C   -1.95867194000000      1.47391024000000     -0.58334279000000
  H   -1.95345112000000      0.32887920000000      0.04123804000000
  H   -1.22304718000000      2.15377264000000     -1.06190319000000
  H   -2.48993024000000      2.16719821000000      0.06004513000000
  H   -2.63160134000000      1.30081003000000     -1.41221840000000
