30
Coordinates from ORCA-job 2_13_orca
  Lu  0.10776991000000      0.05985976000000     -0.01656353000000
  C   0.39993598000000      0.92424477000000      2.42714913000000
  C   1.34746152000000     -0.08929732000000      2.18826340000000
  C   2.29894375000000      0.41503841000000      1.27688281000000
  C   1.90655645000000      1.72783532000000      0.91353102000000
  C   0.73959797000000      2.03777154000000      1.64999728000000
  H   2.52325970000000      2.41480168000000      0.36218140000000
  H   0.21829622000000      2.98501969000000      1.62458821000000
  H   -0.42016118000000      0.86980499000000      3.13558177000000
  H   1.39697385000000     -1.04285342000000      2.68363315000000
  H   3.19821912000000     -0.08213816000000      0.99014031000000
  C   1.00745060000000     -0.06129461000000     -2.50748726000000
  C   -0.27974289000000     -0.64197309000000     -2.55707232000000
  C   1.02166850000000     -1.95636565000000     -1.23097458000000
  C   1.82239555000000     -0.89363656000000     -1.70213425000000
  H   1.36729623000000      0.75601728000000     -3.10807805000000
  C   -0.27033898000000     -1.79703147000000     -1.76592474000000
  H   -1.11889356000000     -0.24206817000000     -3.11099397000000
  H   2.88022789000000     -0.81568547000000     -1.58494709000000
  H   1.37489855000000     -2.79399186000000     -0.65108861000000
  H   -1.09637886000000     -2.48788804000000     -1.62698098000000
  C   -2.40687923000000     -1.34851361000000      1.20120247000000
  H   -2.20951957000000     -1.36588503000000      2.27707556000000
  H   -2.00850638000000     -2.32839762000000      0.87292773000000
  H   -3.51171883000000     -1.36249702000000      1.11333135000000
  C   -1.95140054000000      1.41598505000000     -0.55975506000000
  H   -2.00666887000000      0.28462271000000      0.06186540000000
  H   -1.20692485000000      2.09035311000000     -1.03327622000000
  H   -2.46625180000000      2.08524185000000      0.11988414000000
  H   -2.64151593000000      1.25242010000000     -1.37719859000000
