30
Coordinates from ORCA-job 2_14_orca
  Lu  0.16539887000000      0.04964922000000     -0.01497817000000
  C   0.38425964000000      0.92570503000000      2.40135209000000
  C   1.33344297000000     -0.08012530000000      2.17218334000000
  C   2.28447517000000      0.42785436000000      1.28506752000000
  C   1.89975920000000      1.70785965000000      0.90570889000000
  C   0.72704555000000      2.02788003000000      1.60949590000000
  H   2.52780508000000      2.39883186000000      0.36439418000000
  H   0.24719735000000      2.98307405000000      1.61935946000000
  H   -0.44446162000000      0.87235290000000      3.08688314000000
  H   1.38348829000000     -1.02644472000000      2.67478261000000
  H   3.17277210000000     -0.08824029000000      0.97535147000000
  C   1.01235406000000     -0.05666831000000     -2.48394019000000
  C   -0.27943335000000     -0.61193849000000     -2.53107647000000
  C   1.01917832000000     -1.94239716000000     -1.23274925000000
  C   1.80909036000000     -0.89321490000000     -1.71368968000000
  H   1.38520368000000      0.74204302000000     -3.11231753000000
  C   -0.28052124000000     -1.77575529000000     -1.75051676000000
  H   -1.09824020000000     -0.23569856000000     -3.10945525000000
  H   2.87519392000000     -0.79952442000000     -1.56192303000000
  H   1.36122638000000     -2.76936647000000     -0.64582191000000
  H   -1.10454584000000     -2.45856287000000     -1.62198255000000
  C   -2.38498984000000     -1.24832479000000      1.16648495000000
  H   -2.18755694000000     -1.28949860000000      2.22988396000000
  H   -1.99295837000000     -2.18578079000000      0.77759387000000
  H   -3.48266392000000     -1.33207707000000      1.11183475000000
  C   -1.94791158000000      1.33690353000000     -0.53680705000000
  H   -2.13927754000000      0.21687437000000      0.11999821000000
  H   -1.15151889000000      1.98502353000000     -0.98906055000000
  H   -2.42123923000000      1.96063929000000      0.20606768000000
  H   -2.64773988000000      1.17788996000000     -1.33976619000000
