30
Coordinates from ORCA-job 2_4_orca
  Lu  0.04255731000000     -0.10287013000000      0.10883454000000
  C   0.48624658000000      0.73681441000000      2.58065549000000
  C   1.52483351000000     -0.15109679000000      2.27012346000000
  C   2.33604696000000      0.45028400000000      1.30300945000000
  C   1.80259213000000      1.70647036000000      1.01084243000000
  C   0.63739251000000      1.87127282000000      1.77666241000000
  H   2.18882839000000      2.43766570000000      0.27952119000000
  H   0.00228280000000      2.77205825000000      1.81514196000000
  H   -0.27527259000000      0.58962053000000      3.35422969000000
  H   1.66920254000000     -1.14685212000000      2.72096764000000
  H   3.29624156000000      0.03694260000000      0.90666227000000
  C   0.86269594000000     -0.14004870000000     -2.44051603000000
  C   -0.38421201000000     -0.78889464000000     -2.40777701000000
  C   1.10408867000000     -2.06423603000000     -1.26946746000000
  C   1.77985620000000     -0.92908032000000     -1.73900180000000
  H   1.05724720000000      0.83515968000000     -2.91473555000000
  C   -0.22525854000000     -1.99765132000000     -1.71373343000000
  H   -1.29046656000000     -0.48137630000000     -2.93487384000000
  H   2.85876630000000     -0.72351963000000     -1.62572371000000
  H   1.54706729000000     -2.90728263000000     -0.71733057000000
  H   -1.00560302000000     -2.73307744000000     -1.53720583000000
  C   -2.17452307000000     -1.50145034000000      1.20189574000000
  H   -2.31531232000000     -1.27407801000000      2.26947791000000
  H   -2.10628349000000     -2.62152672000000      1.16251775000000
  H   -3.15398873000000     -1.32423860000000      0.74568459000000
  C   -1.99131202000000      1.91433181000000     -0.84365243000000
  H   -2.05031447000000      0.66436475000000      0.06951041000000
  H   -1.11404864000000      2.52875712000000     -1.25020420000000
  H   -2.60216767000000      2.73123432000000     -0.36962244000000
  H   -2.50850873000000      1.61809169000000     -1.77979112000000
