30
Coordinates from ORCA-job 7_0_orca
  Lu  0.48896061000000      0.38770891000000     -0.26558033000000
  C   0.47352925000000      1.01364379000000      2.50800988000000
  C   1.36504914000000     -0.04162190000000      2.19555378000000
  C   2.31922295000000      0.44180777000000      1.27602687000000
  C   1.98481969000000      1.79310106000000      1.00708233000000
  C   0.74647871000000      2.08250080000000      1.63267753000000
  H   2.53711900000000      2.45944762000000      0.35824104000000
  H   0.21714895000000      3.02502505000000      1.61462749000000
  H   -0.31469274000000      0.98696465000000      3.25048347000000
  H   1.36452559000000     -1.02021008000000      2.65949595000000
  H   3.20195409000000     -0.07935402000000      0.93257088000000
  C   1.04229262000000     -0.10225732000000     -2.60722968000000
  C   -0.27292039000000     -0.62105231000000     -2.58604712000000
  C   1.03404648000000     -1.94279336000000     -1.26655297000000
  C   1.84775304000000     -0.89364498000000     -1.75304861000000
  H   1.34886380000000      0.79012555000000     -3.13486579000000
  C   -0.20312021000000     -1.87683178000000     -1.95274316000000
  H   -1.11430293000000     -0.26720575000000     -3.16322569000000
  H   2.90143426000000     -0.76105680000000     -1.55409793000000
  H   1.35021736000000     -2.76307086000000     -0.63528515000000
  H   -1.01676382000000     -2.58851487000000     -1.87943057000000
  C   -2.70627833000000     -1.71093431000000      1.47356070000000
  H   -2.46055906000000     -1.51877971000000      2.51921312000000
  H   -2.80745728000000     -2.73585046000000      1.13105423000000
  H   -3.32186768000000     -0.96670818000000      0.94138065000000
  C   -1.94446735000000      1.73925332000000     -0.71240344000000
  H   -1.44208172000000     -0.81558312000000      0.65075696000000
  H   -1.45208704000000      2.52133707000000     -1.29842787000000
  H   -2.54454633000000      2.25762148000000      0.03802725000000
  H   -2.62228066000000      1.20693578000000     -1.37982359000000
