30
Coordinates from ORCA-job 7_1_orca
  Lu  0.28618098000000      0.38184761000000     -0.24123314000000
  C   0.45811054000000      0.97143898000000      2.46005840000000
  C   1.36049935000000     -0.03948102000000      2.21541435000000
  C   2.34758822000000      0.46285173000000      1.30371036000000
  C   1.97890546000000      1.78903765000000      0.98059197000000
  C   0.78889375000000      2.09298517000000      1.68323672000000
  H   2.53032868000000      2.45997710000000      0.35145916000000
  H   0.21831575000000      3.01475155000000      1.61763728000000
  H   -0.31529971000000      0.96810488000000      3.23940968000000
  H   1.37088708000000     -1.02377231000000      2.65390947000000
  H   3.20437258000000     -0.07783911000000      0.93604552000000
  C   1.04215789000000     -0.08262912000000     -2.58725092000000
  C   -0.24966958000000     -0.66638553000000     -2.62964856000000
  C   1.03627208000000     -1.97735053000000     -1.29796450000000
  C   1.85937784000000     -0.90121337000000     -1.77706440000000
  H   1.34529407000000      0.79525265000000     -3.12780749000000
  C   -0.22048792000000     -1.83095425000000     -1.86513014000000
  H   -1.11339340000000     -0.26783394000000     -3.15405190000000
  H   2.90155165000000     -0.76307754000000     -1.55630119000000
  H   1.35822117000000     -2.76328798000000     -0.63665663000000
  H   -1.01687530000000     -2.58141159000000     -1.85011766000000
  C   -2.56151417000000     -1.57390100000000      1.36097420000000
  H   -2.45530235000000     -1.52430308000000      2.48999842000000
  H   -2.74189655000000     -2.73171684000000      1.13053541000000
  H   -3.34245444000000     -1.04684679000000      0.99326922000000
  C   -1.87204160000000      1.72754987000000     -0.71984546000000
  H   -1.62231075000000     -0.84953679000000      0.71442154000000
  H   -1.43929573000000      2.53794673000000     -1.31385733000000
  H   -2.53317717000000      2.27205735000000      0.02822061000000
  H   -2.61177613000000      1.22691644000000     -1.40259460000000
