30
Coordinates from ORCA-job 7_2_orca
  Lu  0.11713811000000      0.37152662000000     -0.21256555000000
  C   0.41838725000000      0.95501281000000      2.44269505000000
  C   1.39025659000000     -0.05439816000000      2.20646235000000
  C   2.35173791000000      0.47052868000000      1.32614594000000
  C   1.96930889000000      1.77634248000000      0.96560733000000
  C   0.81463794000000      2.10076019000000      1.71235982000000
  H   2.52348120000000      2.46283446000000      0.33971057000000
  H   0.22117546000000      2.99992384000000      1.62649967000000
  H   -0.31068608000000      0.94389057000000      3.22062391000000
  H   1.37783935000000     -1.03244480000000      2.65108599000000
  H   3.20890607000000     -0.07643415000000      0.93857870000000
  C   1.03590855000000     -0.07745998000000     -2.56870859000000
  C   -0.23756702000000     -0.68157286000000     -2.65719867000000
  C   1.06664104000000     -1.98275474000000     -1.31235032000000
  C   1.85096381000000     -0.91788315000000     -1.78280726000000
  H   1.34008550000000      0.80423067000000     -3.11964618000000
  C   -0.25711025000000     -1.81378312000000     -1.80146362000000
  H   -1.11016445000000     -0.27544987000000     -3.14315523000000
  H   2.90439009000000     -0.76423067000000     -1.55747704000000
  H   1.36730321000000     -2.76938903000000     -0.63651880000000
  H   -1.01536461000000     -2.56680433000000     -1.81031907000000
  C   -2.38134376000000     -1.52494252000000      1.28908585000000
  H   -2.43676759000000     -1.51814683000000      2.43563436000000
  H   -2.64124062000000     -2.67823081000000      1.12602308000000
  H   -3.41728857000000     -1.09873774000000      1.02055747000000
  C   -1.83395896000000      1.72218994000000     -0.72460699000000
  H   -1.82449142000000     -0.87812240000000      0.78125745000000
  H   -1.41595690000000      2.55821769000000     -1.33194782000000
  H   -2.50613839000000      2.28357244000000     -0.00268050000000
  H   -2.58607062000000      1.26228774000000     -1.42320390000000
