30
Coordinates from ORCA-job 7_6_orca
  Lu  -0.02108971000000      0.34421247000000     -0.16312877000000
  C   0.43280503000000      0.92782122000000      2.41743156000000
  C   1.37892666000000     -0.07088775000000      2.19119015000000
  C   2.34521307000000      0.44735065000000      1.29122058000000
  C   1.94843373000000      1.76713613000000      0.94971525000000
  C   0.78446472000000      2.06800895000000      1.69559992000000
  H   2.49865094000000      2.45026127000000      0.32555610000000
  H   0.22789183000000      2.99575252000000      1.65619428000000
  H   -0.34476893000000      0.88884272000000      3.19476139000000
  H   1.40670972000000     -1.05114606000000      2.64614316000000
  H   3.21470195000000     -0.06810052000000      0.94166039000000
  C   1.01809477000000     -0.07473347000000     -2.55407025000000
  C   -0.26226559000000     -0.67126901000000     -2.59747573000000
  C   1.05179486000000     -1.97458623000000     -1.27334226000000
  C   1.85110097000000     -0.90191605000000     -1.75369289000000
  H   1.32749949000000      0.80461572000000     -3.09299024000000
  C   -0.24074497000000     -1.79658283000000     -1.77799272000000
  H   -1.11697452000000     -0.28829602000000     -3.14271146000000
  H   2.89274965000000     -0.76404268000000     -1.56166224000000
  H   1.39588158000000     -2.77900321000000     -0.64491604000000
  H   -1.04187695000000     -2.54457606000000     -1.71157813000000
  C   -2.52133958000000     -1.55004560000000      1.32508341000000
  H   -2.33550338000000     -1.45280877000000      2.35956063000000
  H   -2.36592975000000     -2.56535751000000      1.04021517000000
  H   -3.49890228000000     -1.23161632000000      1.08050319000000
  C   -1.80478888000000      1.75614721000000     -0.76316513000000
  H   -1.93050435000000     -0.81976185000000      0.76177667000000
  H   -1.36063193000000      2.56280497000000     -1.34464144000000
  H   -2.43385142000000      2.28987101000000     -0.05104229000000
  H   -2.52271294000000      1.31892695000000     -1.45893937000000
