30
Coordinates from ORCA-job 7_9_orca
  Lu  0.06885961000000      0.29201911000000     -0.14110565000000
  C   0.41159773000000      0.89155757000000      2.43287744000000
  C   1.37610953000000     -0.12402803000000      2.15065920000000
  C   2.28916285000000      0.42333291000000      1.22879939000000
  C   1.89883630000000      1.72388829000000      0.92695892000000
  C   0.70982198000000      2.02391466000000      1.64178504000000
  H   2.44492770000000      2.42453944000000      0.29911590000000
  H   0.22206980000000      2.97609366000000      1.69510901000000
  H   -0.38911435000000      0.80742452000000      3.15016723000000
  H   1.45511698000000     -1.06933161000000      2.63668864000000
  H   3.21967497000000     -0.06369533000000      0.91814605000000
  C   0.98512035000000     -0.07259281000000     -2.49159546000000
  C   -0.31949101000000     -0.63167797000000     -2.51484053000000
  C   1.04304420000000     -1.94016409000000     -1.19527132000000
  C   1.79993678000000     -0.86342765000000     -1.69359092000000
  H   1.29622574000000      0.80690484000000     -3.05047813000000
  C   -0.25747349000000     -1.82612162000000     -1.74627919000000
  H   -1.13904159000000     -0.30763255000000     -3.11385235000000
  H   2.88038371000000     -0.74497648000000     -1.55422491000000
  H   1.42831918000000     -2.78338830000000     -0.65094999000000
  H   -1.07201018000000     -2.51291918000000     -1.58416555000000
  C   -2.52975004000000     -1.52528694000000      1.30026866000000
  H   -2.23834925000000     -1.34916847000000      2.35647017000000
  H   -2.07195846000000     -2.45438738000000      0.91966799000000
  H   -3.66983255000000     -1.39468295000000      1.10973083000000
  C   -1.75760632000000      1.78399073000000     -0.80806599000000
  H   -2.03259772000000     -0.71019007000000      0.71035884000000
  H   -1.23742929000000      2.58076369000000     -1.36723509000000
  H   -2.37170340000000      2.32990146000000     -0.07074334000000
  H   -2.46876784000000      1.36490691000000     -1.53997977000000
