21
Coordinates from ORCA-job 11_0_orca
  Sc  0.31964000000000     -0.36645000000000     -2.08395000000000
  C   0.11613000000000     -0.35340000000000      0.20096000000000
  N   -0.46476000000000     -1.31364000000000      0.94353000000000
  C   -0.46454000000000     -0.97586000000000      2.26709000000000
  C   0.13186000000000      0.23532000000000      2.35675000000000
  N   0.47508000000000      0.59590000000000      1.08434000000000
  C   1.15514000000000      1.83815000000000      0.76221000000000
  H   0.65842000000000      2.67072000000000      1.25438000000000
  H   1.11969000000000      2.01675000000000     -0.30950000000000
  H   2.19357000000000      1.80038000000000      1.08526000000000
  C   -1.00751000000000     -2.56363000000000      0.43579000000000
  H   -1.14437000000000     -2.50642000000000     -0.64250000000000
  H   -1.97992000000000     -2.75074000000000      0.88449000000000
  H   -0.34103000000000     -3.39101000000000      0.67115000000000
  H   -0.88639000000000     -1.60447000000000      3.03283000000000
  H   0.32606000000000      0.85626000000000      3.21477000000000
  C   0.19416000000000      1.56325000000000     -2.95042000000000
  H   -0.27161000000000      1.46880000000000     -3.94099000000000
  H   1.14529000000000      2.08843000000000     -3.09899000000000
  H   -0.45523000000000      2.23315000000000     -2.37277000000000
  H   -0.81965000000000     -1.54149000000000     -2.79443000000000
