39
Coordinates from ORCA-job 4_11_orca
  Ir  0.67084603000000     -0.76687962000000      0.55767516000000
  C   -0.01397738000000     -2.91631885000000      1.33099737000000
  C   0.38844195000000     -2.10894832000000      2.41933259000000
  C   2.17489253000000     -2.28741062000000      0.99393324000000
  C   1.03414963000000     -2.89582315000000      0.36080028000000
  C   1.76289426000000     -1.71906609000000      2.22455150000000
  N   -1.07289854000000     -0.11913461000000     -0.52743988000000
  C   -2.45949224000000     -0.07977662000000      0.03133641000000
  C   -2.82844380000000      1.28737236000000      0.64559315000000
  H   -3.87388744000000      1.21743359000000      0.95674173000000
  H   -2.75699434000000      2.11561012000000     -0.07269717000000
  H   -2.19836553000000      1.54755344000000      1.50181452000000
  C   -3.49082386000000     -0.47675893000000     -1.02913997000000
  H   -2.46375784000000     -0.85026335000000      0.83688047000000
  H   -4.43721913000000     -0.59414129000000     -0.52212432000000
  H   -3.66206385000000      0.28505987000000     -1.80197070000000
  H   -3.23923402000000     -1.42296315000000     -1.51816908000000
  C   -0.83879447000000      0.25011952000000     -1.73850065000000
  C   0.52007053000000      0.19983124000000     -2.19527074000000
  H   -1.68247698000000      0.56258474000000     -2.37273129000000
  C   1.65044301000000      0.14768468000000     -1.43084518000000
  C   2.74538428000000     -0.07637455000000     -2.37160426000000
  S   0.72495976000000      0.22711234000000     -3.91379303000000
  C   2.39744829000000     -0.04242172000000     -3.71893234000000
  H   1.72283149000000      1.09257133000000     -0.22008590000000
  H   3.79388468000000     -0.23877601000000     -2.16861286000000
  H   3.03707466000000     -0.03219493000000     -4.61983534000000
  H   -1.01030547000000     -3.37751800000000      1.18994796000000
  H   -0.17330350000000     -2.00953727000000      3.32796788000000
  H   2.39401592000000     -1.20599512000000      2.95728632000000
  O   1.96855063000000      1.98948173000000      0.16425056000000
  O   0.40760226000000      1.10127565000000      1.46313542000000
  C   1.15242612000000      2.05190638000000      1.14775289000000
  C   0.91647715000000      3.35409932000000      1.90038064000000
  H   0.86031316000000      4.20172586000000      1.20759750000000
  H   1.73918134000000      3.60372054000000      2.57170645000000
  H   0.00045128000000      3.44530416000000      2.53195798000000
  H   3.11934351000000     -2.07794361000000      0.51019829000000
  H   1.01427197000000     -3.38635168000000     -0.59981760000000
