39
Coordinates from ORCA-job 4_13_orca
  Ir  0.65929512000000     -0.78957177000000      0.56611671000000
  C   -0.02219641000000     -2.89368711000000      1.33665682000000
  C   0.41515431000000     -2.10920049000000      2.42029941000000
  C   2.17399351000000     -2.28846272000000      0.96534376000000
  C   1.02603507000000     -2.90960472000000      0.35917927000000
  C   1.78583226000000     -1.72472733000000      2.20158743000000
  N   -1.06216456000000     -0.11995983000000     -0.52588817000000
  C   -2.43808915000000     -0.07954056000000      0.02736981000000
  C   -2.82142577000000      1.29397862000000      0.62637679000000
  H   -3.86971924000000      1.23036015000000      0.93995693000000
  H   -2.75858153000000      2.11642776000000     -0.09552108000000
  H   -2.20100093000000      1.57596999000000      1.48158984000000
  C   -3.48157420000000     -0.48604534000000     -1.02669749000000
  H   -2.45769743000000     -0.82852883000000      0.83645067000000
  H   -4.43634665000000     -0.60207164000000     -0.52027485000000
  H   -3.65292568000000      0.26613943000000     -1.80403640000000
  H   -3.22911593000000     -1.43294567000000     -1.50889242000000
  C   -0.84204179000000      0.24438992000000     -1.71382326000000
  C   0.49100713000000      0.22933480000000     -2.20722163000000
  H   -1.66957771000000      0.56465022000000     -2.37704264000000
  C   1.62964558000000      0.08754428000000     -1.46755351000000
  C   2.74469570000000     -0.05482524000000     -2.36489363000000
  S   0.73065500000000      0.20989475000000     -3.89093442000000
  C   2.39187393000000     -0.03792511000000     -3.69373011000000
  H   1.70075966000000      1.10933859000000     -0.14704088000000
  H   3.79748964000000     -0.22623164000000     -2.15589260000000
  H   3.01956358000000     -0.04175256000000     -4.59582901000000
  H   -1.03017526000000     -3.33161825000000      1.21461174000000
  H   -0.14614190000000     -1.98096863000000      3.34151421000000
  H   2.42514866000000     -1.19169335000000      2.91856116000000
  O   1.94590039000000      1.99009199000000      0.18950734000000
  O   0.44286203000000      1.09275256000000      1.44799097000000
  C   1.10389093000000      2.07152451000000      1.17265061000000
  C   0.92029972000000      3.34816525000000      1.90052707000000
  H   0.86214753000000      4.18149343000000      1.21239303000000
  H   1.73700864000000      3.58786830000000      2.57902530000000
  H   0.01130593000000      3.41152289000000      2.51601581000000
  H   3.11818924000000     -2.09874830000000      0.46526451000000
  H   0.97916050000000     -3.38817131000000     -0.61140300000000
