39
Coordinates from ORCA-job 4_2_orca
  Ir  0.52477620000000     -0.77033680000000      0.65621190000000
  C   -0.00086646000000     -2.88001362000000      1.20364206000000
  C   0.25788483000000     -2.16470323000000      2.39626693000000
  C   2.14133970000000     -2.09570443000000      1.06587078000000
  C   1.12151953000000     -2.83318805000000      0.35879453000000
  C   1.62763466000000     -1.74855765000000      2.31576576000000
  N   -1.07259874000000     -0.09702464000000     -0.48323966000000
  C   -2.47832883000000     -0.08774727000000      0.01542476000000
  C   -2.83758280000000      1.20216312000000      0.73210055000000
  H   -3.87201647000000      1.17834205000000      1.09111291000000
  H   -2.75245193000000      2.04397693000000      0.05283858000000
  H   -2.22632402000000      1.35226647000000      1.61271832000000
  C   -3.53604938000000     -0.42347039000000     -1.02785585000000
  H   -2.52097562000000     -0.86754036000000      0.75234016000000
  H   -4.50375924000000     -0.57783316000000     -0.53022315000000
  H   -3.68485287000000      0.37596659000000     -1.74833594000000
  H   -3.30683454000000     -1.34468362000000     -1.55279376000000
  C   -0.83753134000000      0.23459264000000     -1.70446043000000
  C   0.46704154000000      0.20657000000000     -2.30332818000000
  H   -1.64718069000000      0.52885219000000     -2.34348266000000
  C   1.62361767000000     -0.08666334000000     -1.58007224000000
  C   2.75686943000000     -0.17051775000000     -2.46791882000000
  S   0.76406171000000      0.28150572000000     -3.98821503000000
  C   2.42936940000000      0.02649861000000     -3.78065305000000
  H   2.20406048000000      1.20345826000000     -0.82189508000000
  H   3.78660171000000     -0.28029794000000     -2.16532838000000
  H   3.10122623000000     -0.02738541000000     -4.62377147000000
  H   -0.80170008000000     -3.60200977000000      1.07858973000000
  H   -0.36527220000000     -2.10722563000000      3.28042562000000
  H   2.17960130000000     -1.32908631000000      3.13475430000000
  O   2.01107652000000      2.05962396000000      0.35142918000000
  O   0.33671285000000      1.15025231000000      1.50282301000000
  C   1.08491420000000      2.15101038000000      1.17217134000000
  C   0.91009476000000      3.48109066000000      1.89766848000000
  H   0.87565522000000      4.27948210000000      1.16272978000000
  H   1.78834537000000      3.67357177000000      2.52086158000000
  H   0.03452931000000      3.51256336000000      2.52047809000000
  H   3.18204373000000     -2.01950373000000      0.77715838000000
  H   1.23511308000000     -3.42834792000000     -0.52975446000000
