39
Coordinates from ORCA-job 4_7_orca
  Ir  0.62693665000000     -0.74723132000000      0.58957399000000
  C   0.00276436000000     -2.91072403000000      1.28099228000000
  C   0.31618926000000     -2.13796579000000      2.39638087000000
  C   2.15321083000000     -2.20620059000000      1.05322257000000
  C   1.06723677000000     -2.86152150000000      0.36226302000000
  C   1.70010369000000     -1.73208989000000      2.26919786000000
  N   -1.08251431000000     -0.10869857000000     -0.52225505000000
  C   -2.49794984000000     -0.08632757000000      0.04153112000000
  C   -2.83443422000000      1.25265455000000      0.69278877000000
  H   -3.87391437000000      1.19166734000000      1.02097251000000
  H   -2.75425209000000      2.08452948000000     -0.00690983000000
  H   -2.20932961000000      1.44811643000000      1.55837062000000
  C   -3.51139990000000     -0.44828254000000     -1.03480056000000
  H   -2.49028483000000     -0.86885360000000      0.79958776000000
  H   -4.46256933000000     -0.58221074000000     -0.52522665000000
  H   -3.67728456000000      0.33310206000000     -1.77799189000000
  H   -3.27395398000000     -1.38438164000000     -1.53757357000000
  C   -0.83754286000000      0.25103379000000     -1.73133549000000
  C   0.51721301000000      0.17144488000000     -2.25217072000000
  H   -1.67722989000000      0.54584644000000     -2.35490474000000
  C   1.66526401000000      0.08585053000000     -1.41740294000000
  C   2.74724070000000     -0.13385860000000     -2.43054816000000
  S   0.73146562000000      0.26771208000000     -3.98611284000000
  C   2.41082522000000     -0.01404419000000     -3.76556177000000
  H   1.94680513000000      1.11923654000000     -0.53499995000000
  H   3.79184898000000     -0.26345533000000     -2.17008480000000
  H   3.07790084000000     -0.02432581000000     -4.64136980000000
  H   -0.90718406000000     -3.49789490000000      1.12935925000000
  H   -0.26921610000000     -2.06733970000000      3.30412557000000
  H   2.28579930000000     -1.26823980000000      3.05313142000000
  O   2.02453129000000      2.04453243000000      0.21687229000000
  O   0.32063124000000      1.12603185000000      1.51365412000000
  C   1.16524559000000      2.04820339000000      1.14966743000000
  C   0.90290259000000      3.42314530000000      1.90505263000000
  H   0.86577490000000      4.25309845000000      1.18333697000000
  H   1.76314214000000      3.64065906000000      2.54623534000000
  H   0.00140466000000      3.49639995000000      2.54258657000000
  H   3.14498845000000     -2.04002821000000      0.64689664000000
  H   1.12633516000000     -3.40132186000000     -0.56106380000000
