39
Coordinates from ORCA-job 4_8_orca
  Ir  0.58144871000000     -0.75471021000000      0.62233629000000
  C   -0.00026605000000     -2.89777728000000      1.24729821000000
  C   0.28936347000000     -2.15172672000000      2.39522638000000
  C   2.14764524000000     -2.15404173000000      1.06042174000000
  C   1.08570891000000     -2.84789832000000      0.36173497000000
  C   1.67171552000000     -1.74005231000000      2.28922774000000
  N   -1.07941210000000     -0.10301476000000     -0.50433688000000
  C   -2.49473499000000     -0.08600135000000      0.03277578000000
  C   -2.83593722000000      1.23082330000000      0.70948178000000
  H   -3.87312239000000      1.18625030000000      1.05176450000000
  H   -2.75405057000000      2.06591179000000      0.01836023000000
  H   -2.21822437000000      1.40518897000000      1.58154455000000
  C   -3.52049586000000     -0.43718770000000     -1.03191342000000
  H   -2.50424672000000     -0.86631253000000      0.77787963000000
  H   -4.48084264000000     -0.58041786000000     -0.52691485000000
  H   -3.68055278000000      0.35159747000000     -1.76491808000000
  H   -3.28868651000000     -1.36691086000000     -1.54315080000000
  C   -0.83774452000000      0.24596662000000     -1.71946324000000
  C   0.49681448000000      0.18376247000000     -2.28167742000000
  H   -1.66254493000000      0.53727317000000     -2.34785673000000
  C   1.65134263000000      0.00785643000000     -1.47837648000000
  C   2.75348911000000     -0.15186019000000     -2.45332145000000
  S   0.74457297000000      0.27577868000000     -3.99552120000000
  C   2.41919987000000      0.00518299000000     -3.77825666000000
  H   2.07258226000000      1.15689416000000     -0.67780309000000
  H   3.79073599000000     -0.26977622000000     -2.16879643000000
  H   3.08976787000000     -0.02612788000000     -4.63610886000000
  H   -0.85474757000000     -3.54611254000000      1.11062044000000
  H   -0.30958103000000     -2.08670099000000      3.29616772000000
  H   2.23843282000000     -1.29983753000000      3.08685804000000
  O   2.02549881000000      2.05450826000000      0.27672377000000
  O   0.31234224000000      1.13512346000000      1.52009469000000
  C   1.13230767000000      2.08626241000000      1.16197134000000
  C   0.90254691000000      3.45515020000000      1.90520063000000
  H   0.87007646000000      4.26672531000000      1.17445363000000
  H   1.77430794000000      3.65562202000000      2.53583404000000
  H   0.01354018000000      3.50660183000000      2.53587069000000
  H   3.15757657000000     -2.03249596000000      0.70492692000000
  H   1.17248200000000     -3.41422741000000     -0.54505010000000
