38

C         -2.39049        4.74459        2.37839
C         -1.59016        5.83794        2.75443
C         -3.69978        4.62957        2.85382
C         -4.22366        5.60569        3.70443
C         -3.43948        6.69974        4.07869
C         -2.12910        6.81817        3.60612
H         -2.00512        3.98097        1.71710
H         -4.30850        3.78366        2.56123
H         -1.53825        7.67512        3.90279
H         -5.23783        5.51571        4.07108
H         -3.84729        7.45765        4.73456
C         -0.17851        5.96290        2.23825
C          0.85396        5.95934        3.38017
H         -0.08932        6.90926        1.66286
H          0.03536        5.12912        1.53926
C          2.25190        6.08078        2.83783
H          0.77198        5.02297        3.97732
H          0.64349        6.81389        4.05270
C          2.75885        5.03287        2.07137
C          4.07409        5.13197        1.54500
C          4.84217        6.27694        1.79751
C          3.03177        7.21517        3.09302
C          4.32076        7.31434        2.57125
H          4.54596        4.35756        0.96261
H          5.84809        6.36153        1.40193
H          2.63536        8.02284        3.68984
H          4.91406        8.19698        2.77090
Pd         1.39605        3.44449        1.90394
Br        -0.26384        1.61484        1.75932
P          2.74793        2.15812        0.47271
H          2.00658        1.00492        0.10261
C          0.60847        6.13320       -1.39247
O          1.26861        5.12191       -1.21981
O         -0.69534        6.14579       -1.05614
O          1.24595        7.35132       -1.97820
H          4.10347        2.09422        0.29514
H          3.14372        3.30515       -0.23293
H          2.15345        7.33916       -2.21113
