21
Coordinates from ORCA-job 5_4_orca
  Sc  0.79693591000000     -0.37036470000000     -2.19549226000000
  C   0.34307502000000     -0.52714745000000      0.21135902000000
  N   -0.44814454000000     -1.34629953000000      0.93951452000000
  C   -0.72743004000000     -0.81128096000000      2.17378994000000
  C   -0.09823648000000      0.37178401000000      2.22552248000000
  N   0.56152861000000      0.52643491000000      1.02960710000000
  C   1.38089063000000      1.67271932000000      0.68730821000000
  H   1.32363345000000      2.43779919000000      1.46850323000000
  H   1.03855713000000      2.12735515000000     -0.26944720000000
  H   2.43991527000000      1.37407470000000      0.63713627000000
  C   -0.95436339000000     -2.64873814000000      0.53265296000000
  H   -0.66724416000000     -2.86367075000000     -0.50491740000000
  H   -2.04482263000000     -2.66866404000000      0.57993275000000
  H   -0.56046798000000     -3.42463690000000      1.19823724000000
  H   -1.34696421000000     -1.31599682000000      2.91739160000000
  H   -0.04907622000000      1.11556500000000      3.02771726000000
  C   -0.00759886000000      1.51043381000000     -2.84767250000000
  H   -0.65228257000000      1.50475970000000     -3.70491326000000
  H   0.62837913000000      2.40493664000000     -2.96760473000000
  H   -0.70322479000000      1.73021285000000     -2.01721163000000
  H   -0.25378030000000     -0.79608741000000     -3.11550258000000
