21
Coordinates from ORCA-job 5_5_orca
  Sc  0.76905599000000     -0.43050663000000     -2.18686594000000
  C   0.30576603000000     -0.50426350000000      0.21149700000000
  N   -0.45046987000000     -1.34526292000000      0.94524181000000
  C   -0.69648252000000     -0.83010115000000      2.19040556000000
  C   -0.07772048000000      0.35346062000000      2.24664924000000
  N   0.54768455000000      0.53829125000000      1.03982533000000
  C   1.35332108000000      1.70031479000000      0.69920266000000
  H   1.24101612000000      2.48282792000000      1.44927502000000
  H   1.04983045000000      2.12151739000000     -0.27473392000000
  H   2.40893093000000      1.42328065000000      0.70406193000000
  C   -0.95685661000000     -2.64118832000000      0.52703435000000
  H   -0.71814902000000     -2.83043369000000     -0.52318488000000
  H   -2.03916234000000     -2.68073307000000      0.62219268000000
  H   -0.52605660000000     -3.42514051000000      1.14956393000000
  H   -1.28357017000000     -1.35103387000000      2.93624259000000
  H   0.00173419000000      1.07298636000000      3.05837356000000
  C   0.03531554000000      1.50686705000000     -2.86497429000000
  H   -0.60321906000000      1.51093983000000     -3.75005759000000
  H   0.69169129000000      2.38480708000000     -3.00177460000000
  H   -0.67316284000000      1.78094573000000     -2.06680524000000
  H   -0.37985528000000     -0.83536490000000     -3.10563178000000
