21
Generated by autodE on: 2023-07-17. 
Sc    1.24186  -0.51711  -1.90390
C     0.39816  -0.61187   0.24563
N    -0.45493  -1.36836   0.95272
C    -0.79061  -0.76195   2.13025
C    -0.13530   0.41497   2.16483
N     0.58877   0.48446   1.01011
C     1.41649   1.60499   0.61873
H     1.46261   2.32036   1.44207
H     1.00531   2.12129  -0.24518
H     2.43807   1.28369   0.40858
C    -0.96907  -2.65866   0.55090
H    -0.59351  -2.92646  -0.43137
H    -2.05518  -2.62887   0.49911
H    -0.66351  -3.42580   1.26111
H    -1.46143  -1.20876   2.83937
H    -0.11591   1.18608   2.91501
C    -0.18768   1.43469  -2.78407
H    -0.81722   1.48150  -3.68001
H     0.45225   2.30241  -2.87355
H    -0.88438   1.62237  -1.96393
H     0.13226  -0.13907  -3.15901
