21
Coordinates from ORCA-job reaction-5-cineb10_optts_Compound_2_IRC_F
  Sc  0.56415000910729     -0.16281652817475     -2.01521438256495
  C   0.23655706248756     -0.14875591052271      0.30886346360127
  N   -0.46068011663914     -1.13885589489216      0.90065571213482
  C   -0.49934225294721     -0.97818777307812      2.25665086969917
  C   0.19401060870570      0.14812002913671      2.53003367759167
  N   0.63106941187993      0.63883006370823      1.32987011123655
  C   1.44713453102162      1.83496872604764      1.23322285228440
  H   1.03349037539566      2.61381528247134      1.87014072162851
  H   1.45152305911039      2.20717056637438      0.21265652613288
  H   2.46856992352033      1.63014454280186      1.54962852361336
  C   -1.09263206439367     -2.26371143486033      0.23041753737549
  H   -1.10508860667532     -2.11275888641198     -0.84660550330895
  H   -2.12011093882093     -2.36516903111352      0.56987587488343
  H   -0.54877025454692     -3.18208944074757      0.44120874984033
  H   -1.01462063419432     -1.66039760222247      2.91141399872348
  H   0.39793489527915      0.62882001048251      3.47208357453229
  C   -0.17818921764428      1.28747280927950     -3.34770254556049
  H   -0.27155645764520      0.74861041594645     -4.30434923397951
  H   0.37923470663660      2.20668402387596     -3.54668067876400
  H   -1.19989366685716      1.57369069051856     -3.06881271462718
  H   -0.25140963316077     -1.59660661237087     -2.65892755492093
