21
Coordinates from ORCA-job reaction-5-cineb10_optts_Compound_2_IRC_B
  Sc  0.61597401514417      0.20103749198950     -1.73241476846028
  C   0.29896378057863     -0.17802259493040      0.47101121269480
  N   -0.41793320708571     -1.16706956201478      1.03619303604110
  C   -0.50840703880040     -0.99617635094060      2.39063111625498
  C   0.17874801440140      0.13018623953606      2.68414320373732
  N   0.66582279223986      0.60979098286224      1.49877560084938
  C   1.47058564239293      1.81097896260907      1.38077701364662
  H   1.06517250724353      2.59348721382461      2.01764780619434
  H   1.44591667673802      2.17178791615106      0.35312991836863
  H   2.50456366100558      1.61908471894808      1.65961851773439
  C   -1.04188503217672     -2.26451374501711      0.32190047598924
  H   -1.04078309524419     -2.05152513191186     -0.74581863025098
  H   -2.07442217983236     -2.37980030351838      0.64354643328716
  H   -0.50319543525524     -3.19473340466162      0.48812042659711
  H   -1.05138516868720     -1.67066374802062      3.02999159674205
  H   0.34629501934056      0.61971854513617      3.62798851110430
  C   -0.35049676571776      0.82793749459160     -3.80083490724124
  H   -0.76602382212626      1.03816676249169     -4.78193021329787
  H   0.60914573879652      1.37409279952677     -3.76367866156036
  H   -1.08702853879662      1.21338198230404     -3.07402566715763
  H   -0.25914385838201     -0.27646634299939     -3.76726167396584
