21
Coordinates from ORCA-job reaction-5-cineb10_optts_Compound_1
  Sc  0.75973841909478      0.09931906358382     -1.90867028209414
  C   0.26605532187523     -0.14306681634710      0.36785100064835
  N   -0.44404196608726     -1.13566401912892      0.93583021250810
  C   -0.50841944226234     -0.98539745002896      2.29510857862225
  C   0.18124654853257      0.13751589464614      2.59114794264334
  N   0.64218375016739      0.63468591508792      1.40138246345506
  C   1.45027940412650      1.83342450540642      1.29679471600843
  H   1.03756399894144      2.61765834798081      1.92717135464958
  H   1.44525502627249      2.19426828016929      0.26989701927783
  H   2.47755362739942      1.63874331839838      1.59915278904307
  C   -1.06578653571606     -2.23934218336558      0.22664307758007
  H   -1.06110093538811     -2.03945163412395     -0.84361394174768
  H   -2.09836262763495     -2.35368225478363      0.54891836236122
  H   -0.52863121322927     -3.16681879388163      0.41487371705443
  H   -1.03342014222144     -1.67236417921505      2.93671120805281
  H   0.37034201319584      0.61181486006494      3.53902004273348
  C   -0.31158291329663      0.86242551735451     -3.48976944423566
  H   -0.47586383962855      0.76341237002797     -4.55941873674924
  H   0.52778249843005      1.64942831994574     -3.37323701489217
  H   -1.22280169094589      1.29762755709124     -3.05527824509234
  H   -0.40093930162522     -0.59463661888237     -3.12311481982679
