30
Coordinates from ORCA-job reaction-7-rct-pbeh3c-orca_opt
  Lu  0.14446868622117     -0.50941883988196      0.36056187839409
  C   0.58116011364092      0.28718244941640      2.75390625648917
  C   1.80662105035604     -0.25050355051257      2.30209748994593
  C   2.30190914465871      0.58810637366569      1.28314054402477
  C   1.37840982439057      1.63328515481965      1.09122369611005
  C   0.31508006945930      1.44699974978920      2.00248967651860
  H   1.48439807619625      2.44784308476515      0.38844724748059
  H   -0.54969570406621      2.08602055998303      2.11047751623570
  H   -0.04805756721138     -0.12281640545353      3.52916367196129
  H   2.30152618908363     -1.12742371218557      2.69617487425447
  H   3.23024950288192      0.45636605012564      0.74793645297533
  C   0.53831917222251     -0.14339360008336     -2.17379907000186
  C   -0.54597496495314     -1.04295233417724     -2.07926419309584
  C   1.31797360565981     -2.10002940878761     -1.30184272088537
  C   1.69135904504537     -0.80197488340843     -1.70468712829902
  H   0.50078575311820      0.85730043929016     -2.58041223726910
  C   -0.06617404040231     -2.25014260782373     -1.54342459032974
  H   -1.56613771927466     -0.84374763268720     -2.37270275855653
  H   2.68828748917689     -0.38888329206696     -1.67752332377429
  H   1.98550391844535     -2.86474228016814     -0.93009080539509
  H   -0.65628653324950     -3.13365411833426     -1.35165639977435
  C   -1.96770670789840     -1.23297079097174      1.01920226805617
  H   -2.36409338406900     -0.84821988128067      1.96372714151730
  H   -1.98967662285867     -2.32875012312313      1.10641534371913
  H   -2.72467321867400     -1.00777831649301      0.25619004998954
  C   -1.95526047880024      2.23858534835351     -1.18032479846503
  H   -2.05381085655959      1.43281799836035     -0.45413477911534
  H   -0.94328088030674      2.63663042187623     -1.16413181612700
  H   -2.65581364386953      3.02839191909840     -0.92408280008653
  H   -2.17944931836327      1.85788222789571     -2.17307668649704
