27
Generated by autodE on: 2023-07-20. 
Pd   -2.08038  -1.57579   0.46786
Cl   -3.36855  -3.15956  -0.54132
Cl   -0.41302  -4.05440   0.99802
Cl   -3.95393  -0.40338   1.10139
N    -0.96300  -0.13835   1.41989
C    -1.30161   0.40204   2.57423
C    -0.76765   1.61368   3.01593
C     0.09180   2.29553   2.19230
C    -0.03519   0.45357   0.64188
C     0.47721   1.72568   0.97459
H     0.47710   3.27065   2.46933
H    -2.04572  -0.12190   3.15385
H    -1.07328   2.01786   3.97032
C     0.36837  -0.23844  -0.54706
C     1.33983   2.39106   0.05441
C     1.66882   1.79261  -1.10980
C     1.20901   0.47564  -1.43634
H     1.70733   3.38124   0.29964
H     2.30755   2.30614  -1.82016
C    -0.08669  -1.56752  -0.81778
C     1.59761  -0.12943  -2.63720
C     0.30307  -2.08270  -2.04637
C     1.14029  -1.38933  -2.93485
H     2.25682   0.40636  -3.31232
H     1.45398  -1.85965  -3.85926
H    -0.28558  -2.73576   0.05011
H    -0.02486  -3.07680  -2.32154
