21
Coordinates from ORCA-job 5_1_orca
  Sc  1.66320929000000     -1.26675759000000     -1.51085630000000
  C   0.40505566000000     -0.61756100000000      0.19438297000000
  N   -0.48322095000000     -1.36308235000000      0.92810784000000
  C   -0.80041831000000     -0.76373933000000      2.11897620000000
  C   -0.15128132000000      0.41082669000000      2.15141962000000
  N   0.56136628000000      0.50353792000000      0.99217491000000
  C   1.42976305000000      1.63395645000000      0.59104155000000
  H   1.54337344000000      2.31637120000000      1.45097324000000
  H   0.99478000000000      2.15943513000000     -0.20732890000000
  H   2.42983661000000      1.27147805000000      0.35200168000000
  C   -0.99023410000000     -2.67149292000000      0.55384362000000
  H   -0.58994544000000     -2.97279665000000     -0.41113376000000
  H   -2.07268015000000     -2.64192627000000      0.48466057000000
  H   -0.69726532000000     -3.41774310000000      1.29890720000000
  H   -1.44411837000000     -1.21137360000000      2.84028649000000
  H   -0.13715796000000      1.17583382000000      2.89074585000000
  C   -0.38072080000000      1.63408944000000     -2.92413149000000
  H   -0.94166197000000      1.66996680000000     -3.69766553000000
  H   0.29697997000000      2.61202931000000     -2.93009967000000
  H   -0.84663690000000      1.62277271000000     -1.95621041000000
  H   0.21185104000000     -0.08225173000000     -3.21161073000000
