21
Coordinates from ORCA-job 5_2_orca
  Sc  1.64430041000000     -1.24764098000000     -1.53295834000000
  C   0.41175352000000     -0.61716207000000      0.21821758000000
  N   -0.47708294000000     -1.35859252000000      0.92247662000000
  C   -0.80282345000000     -0.76684912000000      2.11597504000000
  C   -0.15101634000000      0.41166327000000      2.15364381000000
  N   0.56807603000000      0.50081621000000      0.98415720000000
  C   1.43163775000000      1.63156573000000      0.60171421000000
  H   1.53480204000000      2.30568308000000      1.45249756000000
  H   0.99127499000000      2.16811943000000     -0.22470895000000
  H   2.42970902000000      1.26663211000000      0.35001439000000
  C   -0.98938670000000     -2.67119216000000      0.55559837000000
  H   -0.59118661000000     -2.97101480000000     -0.41270702000000
  H   -2.07314665000000     -2.64331330000000      0.48340741000000
  H   -0.69722018000000     -3.41584905000000      1.29799353000000
  H   -1.44851577000000     -1.21378100000000      2.84291082000000
  H   -0.13467728000000      1.18181766000000      2.89400295000000
  C   -0.35063331000000      1.61904213000000     -2.88727727000000
  H   -0.98397560000000      1.65568412000000     -3.75234980000000
  H   0.32135895000000      2.55851393000000     -2.93111011000000
  H   -0.84452992000000      1.60278129000000     -1.95617632000000
  H   0.21278652000000      0.00547938000000     -3.17746459000000
