21
Coordinates from ORCA-job 5_4_orca
  Sc  1.56817196000000     -1.17139968000000     -1.61408320000000
  C   0.41569755000000     -0.60687648000000      0.25132933000000
  N   -0.46877847000000     -1.36067147000000      0.92672982000000
  C   -0.79957664000000     -0.76833296000000      2.11480141000000
  C   -0.13836403000000      0.41319358000000      2.15273930000000
  N   0.58108494000000      0.50132224000000      0.98840640000000
  C   1.42277531000000      1.62372438000000      0.61490392000000
  H   1.50100383000000      2.30750263000000      1.45541318000000
  H   0.99902897000000      2.16710903000000     -0.24759336000000
  H   2.42942548000000      1.27165555000000      0.37266145000000
  C   -0.98151523000000     -2.66648658000000      0.55171267000000
  H   -0.59922051000000     -2.95717103000000     -0.42199207000000
  H   -2.06972925000000     -2.64543571000000      0.48940002000000
  H   -0.68399901000000     -3.41318631000000      1.28601929000000
  H   -1.45209312000000     -1.22424173000000      2.84798263000000
  H   -0.12416587000000      1.18315891000000      2.91212307000000
  C   -0.29732139000000      1.56972568000000     -2.90832427000000
  H   -0.98648193000000      1.62560911000000     -3.78906748000000
  H   0.38146183000000      2.44116697000000     -2.93140119000000
  H   -0.85507090000000      1.58666857000000     -1.94951937000000
  H   0.16036293000000      0.12699249000000     -3.10452304000000
