21
Coordinates from ORCA-job 5_5_orca
  Sc  1.45300909000000     -1.05545302000000     -1.72756236000000
  C   0.41156546000000     -0.60033280000000      0.25108451000000
  N   -0.45686517000000     -1.36019653000000      0.94136050000000
  C   -0.79282082000000     -0.76559191000000      2.12715017000000
  C   -0.12779603000000      0.41630414000000      2.16737028000000
  N   0.58870552000000      0.50057847000000      1.00608744000000
  C   1.41391601000000      1.62642538000000      0.62345818000000
  H   1.45598981000000      2.32683311000000      1.45247665000000
  H   1.01645476000000      2.14735125000000     -0.25597044000000
  H   2.42844912000000      1.28861366000000      0.41687340000000
  C   -0.97482784000000     -2.66159183000000      0.54665685000000
  H   -0.60939367000000     -2.93581393000000     -0.43899908000000
  H   -2.06069242000000     -2.64637133000000      0.50206052000000
  H   -0.66023552000000     -3.41244209000000      1.26532233000000
  H   -1.44582956000000     -1.23384693000000      2.84867908000000
  H   -0.10948421000000      1.17012317000000      2.93256971000000
  C   -0.26307311000000      1.48400666000000     -2.89470701000000
  H   -0.94414978000000      1.59783306000000     -3.80670706000000
  H   0.45625911000000      2.34311741000000     -2.93562936000000
  H   -0.85619650000000      1.59714109000000     -1.98349758000000
  H   0.08057265000000      0.17897864000000     -3.03912700000000
