21
Coordinates from ORCA-job 5_8_orca
  Sc  1.24996191000000     -0.78407475000000     -1.92116288000000
  C   0.39010743000000     -0.58620358000000      0.22411127000000
  N   -0.44571478000000     -1.36172863000000      0.94888576000000
  C   -0.77760955000000     -0.77054106000000      2.13748179000000
  C   -0.11974701000000      0.40851399000000      2.18183271000000
  N   0.58900400000000      0.49489096000000      1.01570596000000
  C   1.41001225000000      1.62095347000000      0.63577488000000
  H   1.41080644000000      2.35285454000000      1.44463206000000
  H   1.02712956000000      2.11233970000000     -0.25352447000000
  H   2.43595820000000      1.30619988000000      0.46204464000000
  C   -0.96278320000000     -2.65087842000000      0.54447451000000
  H   -0.61493398000000     -2.90474609000000     -0.45157324000000
  H   -2.05108033000000     -2.63871397000000      0.51759291000000
  H   -0.63199236000000     -3.42031325000000      1.24058865000000
  H   -1.44052608000000     -1.23366174000000      2.85266914000000
  H   -0.09325218000000      1.16644896000000      2.95333066000000
  C   -0.25198230000000      1.39898526000000     -2.86955037000000
  H   -0.84127430000000      1.52301660000000     -3.75446084000000
  H   0.53198544000000      2.14976370000000     -2.92403842000000
  H   -0.87271882000000      1.60088180000000     -2.01702216000000
  H   0.06564103000000      0.22545301000000     -2.97001808000000
