21
Coordinates from ORCA-job 9_0_orca
  Sc  0.93871347000000     -0.64406362000000     -1.95224223000000
  C   0.23774904000000     -0.44702859000000      0.20479286000000
  N   -0.46009375000000     -1.33135640000000      0.93630777000000
  C   -0.62074968000000     -0.88319112000000      2.21515913000000
  C   0.01165361000000      0.30764643000000      2.29077743000000
  N   0.49621344000000      0.57452364000000      1.04410102000000
  C   1.28217748000000      1.75625572000000      0.75038723000000
  H   1.02217837000000      2.60405469000000      1.37799071000000
  H   1.09446006000000      2.08174540000000     -0.27082387000000
  H   2.34379120000000      1.54887677000000      0.86218886000000
  C   -0.97202241000000     -2.61849372000000      0.50021562000000
  H   -0.84634127000000     -2.72431541000000     -0.57385369000000
  H   -2.03262760000000     -2.68936802000000      0.73041803000000
  H   -0.43838320000000     -3.42751802000000      0.99367636000000
  H   -1.14974401000000     -1.43211152000000      2.97558515000000
  H   0.13275912000000      0.95497617000000      3.14227795000000
  C   0.07336556000000      1.58672037000000     -2.92928630000000
  H   -0.46059479000000      1.51901317000000     -3.88595012000000
  H   0.82823891000000      2.36486217000000     -3.09253855000000
  H   -0.63728620000000      1.96952317000000     -2.18992646000000
  H   -0.84343016000000     -1.07074568000000     -3.12925973000000
