21
Coordinates from ORCA-job 9_1_orca
  Sc  0.82309427000000     -0.55408287000000     -2.07103462000000
  C   0.26521903000000     -0.46302335000000      0.19819354000000
  N   -0.46252624000000     -1.33704020000000      0.94668422000000
  C   -0.63874903000000     -0.87284276000000      2.21362967000000
  C   -0.02387857000000      0.31958464000000      2.28405115000000
  N   0.51431616000000      0.56622441000000      1.06407119000000
  C   1.31606691000000      1.74532152000000      0.70258356000000
  H   1.07767756000000      2.56771601000000      1.40221437000000
  H   1.08344907000000      2.08328030000000     -0.26983676000000
  H   2.36536994000000      1.51467500000000      0.82088422000000
  C   -0.96458791000000     -2.62330223000000      0.49814114000000
  H   -0.81546632000000     -2.75205991000000     -0.56263248000000
  H   -2.03566532000000     -2.68399828000000      0.69869214000000
  H   -0.46376514000000     -3.42886651000000      1.03615393000000
  H   -1.19042207000000     -1.40742419000000      2.95883603000000
  H   0.09821072000000      0.98671615000000      3.11480496000000
  C   0.09834389000000      1.55432987000000     -2.88647895000000
  H   -0.49038351000000      1.50523649000000     -3.85119705000000
  H   0.78026715000000      2.39124143000000     -3.05816461000000
  H   -0.66175587000000      1.92974286000000     -2.16002655000000
  H   -0.67487975000000     -1.04020994000000     -3.07802108000000
