21
Coordinates from ORCA-job 9_7_orca
  Sc  0.83531775000000     -0.20399656000000     -2.06617205000000
  C   0.32574373000000     -0.51872053000000      0.19886248000000
  N   -0.44668075000000     -1.34514718000000      0.92603023000000
  C   -0.72260099000000     -0.82559809000000      2.16229926000000
  C   -0.06690989000000      0.38375347000000      2.22538649000000
  N   0.55740491000000      0.52600083000000      1.01847729000000
  C   1.38436341000000      1.66258989000000      0.66962220000000
  H   1.29004448000000      2.41887770000000      1.44290081000000
  H   1.05543933000000      2.10398388000000     -0.26773217000000
  H   2.43465461000000      1.38905154000000      0.60008461000000
  C   -0.96158789000000     -2.64231208000000      0.51595927000000
  H   -0.67427927000000     -2.85266890000000     -0.50719611000000
  H   -2.04795013000000     -2.65209161000000      0.57843327000000
  H   -0.56301902000000     -3.41937910000000      1.16517153000000
  H   -1.33380411000000     -1.30988416000000      2.88713597000000
  H   -0.04124807000000      1.10541474000000      3.00660277000000
  C   -0.00953143000000      1.58965935000000     -2.79479714000000
  H   -0.57661877000000      1.42714256000000     -3.71940339000000
  H   0.63179397000000      2.47517751000000     -2.90828998000000
  H   -0.75686181000000      1.77383345000000     -2.00676416000000
  H   -0.31892229000000     -1.07797047000000     -3.12535518000000
