39
Coordinates from ORCA-job 6_0_orca
  Ir  0.56842000000000     -0.80088000000000      0.38327000000000
  C   0.30054000000000     -2.89533000000000      0.67739000000000
  C   -0.15899000000000     -2.31980000000000      1.92187000000000
  C   2.06517000000000     -1.76715000000000      1.64206000000000
  C   1.69506000000000     -2.61519000000000      0.56375000000000
  C   0.90684000000000     -1.62792000000000      2.49108000000000
  N   -1.20025000000000     -0.24940000000000     -0.60787000000000
  C   -2.51762000000000     -0.32121000000000      0.03539000000000
  C   -2.58972000000000      0.64033000000000      1.21562000000000
  H   -3.55302000000000      0.53477000000000      1.71353000000000
  H   -2.49733000000000      1.67426000000000      0.88261000000000
  H   -1.81483000000000      0.44958000000000      1.95592000000000
  C   -3.68686000000000     -0.10246000000000     -0.91261000000000
  H   -2.58904000000000     -1.34270000000000      0.42097000000000
  H   -4.61409000000000     -0.29122000000000     -0.37402000000000
  H   -3.73979000000000      0.92402000000000     -1.27963000000000
  H   -3.66954000000000     -0.78061000000000     -1.76663000000000
  C   -1.04392000000000      0.16657000000000     -1.81532000000000
  C   0.28892000000000      0.13229000000000     -2.31313000000000
  H   -1.88069000000000      0.50156000000000     -2.41855000000000
  C   1.26199000000000     -0.34582000000000     -1.45786000000000
  C   2.52154000000000     -0.38425000000000     -2.10940000000000
  S   0.88420000000000      0.51605000000000     -3.87698000000000
  C   2.45369000000000      0.05489000000000     -3.40896000000000
  H   2.25778000000000      1.43351000000000     -0.77785000000000
  H   3.44399000000000     -0.72791000000000     -1.66171000000000
  H   3.26615000000000      0.11838000000000     -4.11713000000000
  H   -0.26767000000000     -3.54413000000000      0.02747000000000
  H   -1.15853000000000     -2.38900000000000      2.32366000000000
  H   0.86434000000000     -1.04029000000000      3.39674000000000
  O   2.22291000000000      2.25931000000000     -0.25816000000000
  O   0.62512000000000      1.25078000000000      0.94669000000000
  C   1.31866000000000      2.22999000000000      0.67217000000000
  C   1.17490000000000      3.50922000000000      1.42513000000000
  H   0.97687000000000      4.33102000000000      0.73720000000000
  H   2.10923000000000      3.74491000000000      1.93619000000000
  H   0.37444000000000      3.44205000000000      2.15451000000000
  H   3.05863000000000     -1.40716000000000      1.86168000000000
  H   2.34248000000000     -2.96102000000000     -0.22909000000000
