21
Coordinates from ORCA-job 7_0_orca
  Sc  1.43574406000000     -1.00773080000000     -1.70940295000000
  C   0.31893003000000     -0.54008800000000      0.21044189000000
  N   -0.46237623000000     -1.35734291000000      0.93507173000000
  C   -0.74965859000000     -0.79820606000000      2.14548654000000
  C   -0.09362681000000      0.38116421000000      2.19431967000000
  N   0.55700821000000      0.52149544000000      1.00585378000000
  C   1.39803516000000      1.65513830000000      0.68473376000000
  H   1.39882647000000      2.44793025000000      1.42882012000000
  H   1.03315344000000      2.11541833000000     -0.22966852000000
  H   2.43500023000000      1.35569551000000      0.55132772000000
  C   -0.96754129000000     -2.66022268000000      0.54089265000000
  H   -0.63849811000000     -2.89626330000000     -0.46744525000000
  H   -2.05527001000000     -2.65244990000000      0.56203418000000
  H   -0.60060226000000     -3.43072290000000      1.21496592000000
  H   -1.37553453000000     -1.27174221000000      2.88266254000000
  H   -0.07052928000000      1.10117469000000      2.99383719000000
  C   -0.13650888000000      1.67218544000000     -2.87812557000000
  H   -0.75188320000000      1.67543346000000     -3.78786804000000
  H   0.43633602000000      2.60447165000000     -2.97018711000000
  H   -0.81494198000000      1.80058227000000     -2.03040071000000
  H   -0.29603760000000     -0.71591048000000     -3.27735469000000
