21
Coordinates from ORCA-job 7_2_orca
  Sc  1.28042608000000     -0.91410023000000     -1.85449425000000
  C   0.38933190000000     -0.57804170000000      0.23356673000000
  N   -0.47057059000000     -1.34757057000000      0.93497795000000
  C   -0.76744116000000     -0.79254917000000      2.15152220000000
  C   -0.12580042000000      0.39076773000000      2.19970683000000
  N   0.56164481000000      0.51847745000000      1.01593691000000
  C   1.41394507000000      1.65858251000000      0.63527740000000
  H   1.42043777000000      2.38428579000000      1.44983490000000
  H   1.02255820000000      2.12568550000000     -0.25654536000000
  H   2.44220062000000      1.32665099000000      0.49531069000000
  C   -0.96952061000000     -2.65441866000000      0.54365618000000
  H   -0.63098784000000     -2.91629900000000     -0.45897951000000
  H   -2.05713860000000     -2.65297126000000      0.53075071000000
  H   -0.62704189000000     -3.42422365000000      1.23904973000000
  H   -1.40601749000000     -1.25548059000000      2.87072015000000
  H   -0.08733138000000      1.13457204000000      2.96174687000000
  C   -0.20421851000000      1.71437376000000     -2.85665666000000
  H   -0.78036087000000      1.60798402000000     -3.75156188000000
  H   0.43122081000000      2.58565981000000     -2.93063732000000
  H   -0.82981325000000      1.72849920000000     -1.99601044000000
  H   -0.00498808000000     -0.63768449000000     -3.15766906000000
