21
Coordinates from ORCA-job 7_3_orca
  Sc  1.25937505000000     -0.89227756000000     -1.87563251000000
  C   0.39498989000000     -0.58086619000000      0.24751521000000
  N   -0.46512097000000     -1.35081204000000      0.93365310000000
  C   -0.77237022000000     -0.78727652000000      2.14330499000000
  C   -0.12539039000000      0.39561029000000      2.18871203000000
  N   0.57137923000000      0.51297474000000      1.00693476000000
  C   1.41247466000000      1.64812333000000      0.64337837000000
  H   1.42920523000000      2.36941142000000      1.44886155000000
  H   1.01793812000000      2.13169493000000     -0.26646232000000
  H   2.44305302000000      1.31880255000000      0.47761747000000
  C   -0.97050523000000     -2.65594487000000      0.54547625000000
  H   -0.62681765000000     -2.92067791000000     -0.45441096000000
  H   -2.05813246000000     -2.65201134000000      0.52278444000000
  H   -0.63492557000000     -3.42077326000000      1.24407372000000
  H   -1.41886441000000     -1.25305564000000      2.87040068000000
  H   -0.09383929000000      1.14719709000000      2.95866802000000
  C   -0.21228135000000      1.70558664000000     -2.84943335000000
  H   -0.79873079000000      1.59392395000000     -3.75601226000000
  H   0.43087832000000      2.58220609000000     -2.92125353000000
  H   -0.84348842000000      1.71180217000000     -1.97602388000000
  H   0.06213610000000     -0.60107404000000     -3.13253710000000
