21
Coordinates from ORCA-job 7_4_orca
  Sc  1.22667610000000     -0.85396374000000     -1.90696803000000
  C   0.40984278000000     -0.59117823000000      0.25357823000000
  N   -0.46127725000000     -1.35508783000000      0.93617446000000
  C   -0.78214141000000     -0.78053164000000      2.13845553000000
  C   -0.12794435000000      0.40423712000000      2.17954089000000
  N   0.58000626000000      0.50735758000000      1.00712601000000
  C   1.41335346000000      1.63841063000000      0.63229653000000
  H   1.44040357000000      2.34922224000000      1.45309054000000
  H   1.01527123000000      2.13545572000000     -0.27128071000000
  H   2.44212383000000      1.30787359000000      0.45354205000000
  C   -0.97113505000000     -2.65608152000000      0.54571532000000
  H   -0.62118558000000     -2.92732297000000     -0.44800573000000
  H   -2.05947554000000     -2.65046689000000      0.51130293000000
  H   -0.64571590000000     -3.41711034000000      1.25248542000000
  H   -1.43357578000000     -1.24650535000000      2.86540764000000
  H   -0.10266922000000      1.16171078000000      2.94912519000000
  C   -0.22568232000000      1.69714137000000     -2.83856988000000
  H   -0.82144937000000      1.57201412000000     -3.75634547000000
  H   0.42800860000000      2.56723379000000     -2.90687914000000
  H   -0.85940220000000      1.68616663000000     -1.95274983000000
  H   0.15754784000000     -0.54530321000000     -3.09721220000000
