21
Coordinates from ORCA-job 7_5_orca
  Sc  1.22087969000000     -0.77543820000000     -1.90719442000000
  C   0.41208733000000     -0.60405471000000      0.24911330000000
  N   -0.44864058000000     -1.36417490000000      0.94635598000000
  C   -0.79427155000000     -0.76485341000000      2.13051666000000
  C   -0.12889786000000      0.41694107000000      2.17036013000000
  N   0.59494842000000      0.49379139000000      1.00653482000000
  C   1.41381084000000      1.62578103000000      0.62295927000000
  H   1.45284839000000      2.32853440000000      1.45119516000000
  H   1.01589481000000      2.13439203000000     -0.26547836000000
  H   2.43407798000000      1.29706450000000      0.42678021000000
  C   -0.97280960000000     -2.65779299000000      0.54640052000000
  H   -0.61137253000000     -2.93312287000000     -0.44038443000000
  H   -2.05986056000000     -2.64597652000000      0.50016424000000
  H   -0.65695408000000     -3.41319087000000      1.25962060000000
  H   -1.44863569000000     -1.23579208000000      2.85504031000000
  H   -0.11346258000000      1.17458921000000      2.93549682000000
  C   -0.23482358000000      1.64602851000000     -2.82377998000000
  H   -0.83962812000000      1.54650264000000     -3.74924511000000
  H   0.42830468000000      2.52919350000000     -2.88985788000000
  H   -0.87887596000000      1.66145688000000     -1.92966929000000
  H   0.21819913000000     -0.45537090000000     -3.09438619000000
