21
Coordinates from ORCA-job 7_8_orca
  Sc  1.24528882000000     -0.56730459000000     -1.89363416000000
  C   0.40143743000000     -0.61336762000000      0.24641933000000
  N   -0.45181999000000     -1.36964066000000      0.95530540000000
  C   -0.79366070000000     -0.75895645000000      2.12782977000000
  C   -0.13473022000000      0.41728656000000      2.16300439000000
  N   0.59358075000000      0.48365967000000      1.01006648000000
  C   1.41596833000000      1.60655020000000      0.61732702000000
  H   1.46280025000000      2.31786463000000      1.44381540000000
  H   1.00867548000000      2.12413820000000     -0.24808348000000
  H   2.43492400000000      1.28488483000000      0.40649586000000
  C   -0.96935555000000     -2.65758888000000      0.55010822000000
  H   -0.59566080000000     -2.92993220000000     -0.43208753000000
  H   -2.05658702000000     -2.63169668000000      0.49678803000000
  H   -0.66443864000000     -3.42217650000000      1.26264617000000
  H   -1.46020092000000     -1.21172449000000      2.83860698000000
  H   -0.11752407000000      1.18584708000000      2.91628532000000
  C   -0.20176147000000      1.48036440000000     -2.79082793000000
  H   -0.82745379000000      1.49494600000000     -3.69435092000000
  H   0.44112555000000      2.34534295000000     -2.87364599000000
  H   -0.88699389000000      1.62810803000000     -1.95323285000000
  H   0.16263683000000     -0.19777022000000     -3.15036824000000
