21
Coordinates from ORCA-job reaction-0-prod-pbeh3c-orca_opt
  C   -1.26530330560028      0.06894190544628     -1.02240830192920
  C   -2.32892728429524     -0.82434432100236     -1.08991199226838
  C   -2.23022045221233     -2.07741149861159     -0.50600379321237
  C   -1.05614659514659     -2.43734026123804      0.14006828788498
  C   -0.08553988151268     -0.28835961745557     -0.37439902981413
  C   0.01203317169466     -1.55252328536620      0.20243346581107
  H   -1.36539985491370      1.03448988519397     -1.50455561254966
  H   -3.23432905328096     -0.53847242721361     -1.61093331739819
  H   -3.05762091108295     -2.77272986648541     -0.56276619031014
  H   0.92734405024766     -1.86607976551447      0.68936193920428
  H   -0.96387798577085     -3.41844562498189      0.58909832461140
  Pd  1.44840041086558      0.90053578876797     -0.31164119153836
  O   3.59504570336256      1.58068859820968     -0.46482240923516
  O   2.87387181653546     -0.46052748589292     -0.78216237135404
  O   0.18889830105751      2.46944163505828      0.21013933196926
  C   -0.33839959165475      2.58755180667406      1.29011069271687
  O   -0.10648577166278      1.76680131669207      2.27893072794344
  H   -0.62275551606851      1.98477229859525      3.06300723790294
  C   3.81244372197852      0.39075519967613     -0.74437133625780
  H   4.83085275577433      0.03775371251923     -0.96752551478726
  H   -1.03381372831469      3.41448200692914      1.47837105261043
