9
Coordinates from ORCA-job 5_3_orca
  Pt  -1.00426409000000     -0.90768864000000      0.53770570000000
  Cl  -0.25402431000000     -0.54597837000000      2.69994352000000
  Cl  -2.64769590000000     -2.21285927000000      1.15081186000000
  Cl  -1.57372729000000     -1.08769933000000     -1.69117466000000
  C   1.09183463000000      0.83165294000000     -0.42811068000000
  H   1.45612873000000      1.82128070000000     -0.02405314000000
  H   1.15645463000000      0.12996542000000      0.07877646000000
  H   1.66987400000000      0.72671956000000     -1.40107394000000
  H   0.10003739000000      1.24406104000000     -0.92262258000000
