9
Coordinates from ORCA-job 5_5_orca
  Pt  -1.00945921000000     -0.90626502000000      0.53850010000000
  Cl  -0.25646435000000     -0.55445827000000      2.70189570000000
  Cl  -2.65797959000000     -2.22714068000000      1.15524063000000
  Cl  -1.58374788000000     -1.08426775000000     -1.68987349000000
  C   1.09676984000000      0.90794374000000     -0.49231950000000
  H   1.45525227000000      1.81379420000000     -0.03053604000000
  H   1.16536527000000      0.10558609000000      0.12032263000000
  H   1.67377585000000      0.72199549000000     -1.38576130000000
  H   0.11037891000000      1.22240404000000     -0.91716336000000
