9
Coordinates from ORCA-job 5_6_orca
  Pt  -1.00449126000000     -0.90134975000000      0.53509556000000
  Cl  -0.25430097000000     -0.54838148000000      2.69503939000000
  Cl  -2.66123796000000     -2.22588564000000      1.15865281000000
  Cl  -1.57568527000000     -1.08525724000000     -1.69031628000000
  C   1.08021810000000      0.97534027000000     -0.55143436000000
  H   1.46261567000000      1.80137307000000     -0.01458659000000
  H   1.14696762000000      0.07229942000000      0.13697772000000
  H   1.67490222000000      0.71777788000000     -1.38432155000000
  H   0.12265201000000      1.19375513000000     -0.88463511000000
