9
Coordinates from ORCA-job 6_5_orca
  Pt  -0.91938210000000     -0.86816457000000      0.50801352000000
  Cl  -0.22507993000000     -0.47121176000000      2.68510438000000
  Cl  -2.61731663000000     -2.14495188000000      1.13956650000000
  Cl  -1.49368331000000     -1.11792260000000     -1.71727876000000
  C   1.04115172000000      0.85655667000000     -0.46847876000000
  H   1.44309857000000      1.73495143000000      0.04144187000000
  H   1.11369153000000      0.00147071000000      0.08433293000000
  H   1.59223756000000      0.72869898000000     -1.39821785000000
  H   0.05956646000000      1.27998302000000     -0.87368994000000
