9
Coordinates from ORCA-job 6_7_orca
  Pt  -0.91790115000000     -0.86362091000000      0.50466661000000
  Cl  -0.22164297000000     -0.46445265000000      2.67841475000000
  Cl  -2.61938224000000     -2.14363009000000      1.14420178000000
  Cl  -1.48427585000000     -1.11829744000000     -1.71908184000000
  C   1.02995010000000      0.92788103000000     -0.52030488000000
  H   1.45557345000000      1.71711344000000      0.06375623000000
  H   1.08398618000000     -0.00933539000000      0.08569184000000
  H   1.60009203000000      0.71895676000000     -1.40001688000000
  H   0.06484250000000      1.23512789000000     -0.83574961000000
