38
Coordinates from ORCA-job 1_5_orca
  C   -2.78518218000000     -0.24297023000000      0.81126606000000
  C   -2.10558051000000      0.82344423000000      1.15371746000000
  C   -3.99377573000000     -0.61031278000000      1.27457247000000
  C   -4.65549829000000      0.31580223000000      2.07770622000000
  C   -4.04954793000000      1.50286590000000      2.45251674000000
  C   -2.73587777000000      1.69906772000000      2.02009887000000
  H   -2.35158062000000     -0.98706730000000      0.04486638000000
  H   -4.47044112000000     -1.54489400000000      1.09101771000000
  H   -2.24468527000000      2.60321964000000      2.40396184000000
  H   -5.70133184000000      0.15884297000000      2.33292766000000
  H   -4.59723391000000      2.27609932000000      3.01282944000000
  C   -0.74162334000000      1.26249769000000      0.63891069000000
  C   0.41964976000000      0.53460538000000      1.32456750000000
  H   -0.60704903000000      2.35119583000000      0.77368403000000
  H   -0.73837705000000      1.09248709000000     -0.44290716000000
  C   1.69952062000000      0.58409135000000      0.52801632000000
  H   0.10644631000000     -0.49696328000000      1.48218331000000
  H   0.56138721000000      0.97274459000000      2.31485682000000
  C   1.85484797000000     -0.19181434000000     -0.64421580000000
  C   3.04061230000000      0.00190669000000     -1.35567445000000
  C   3.98404210000000      0.96523212000000     -1.00099849000000
  C   2.65940550000000      1.53571613000000      0.90204188000000
  C   3.80368638000000      1.72572333000000      0.14545146000000
  H   3.21605080000000     -0.60150504000000     -2.24118001000000
  H   4.85071020000000      1.12678517000000     -1.62695699000000
  H   2.54476518000000      2.06362879000000      1.84353087000000
  H   4.50990970000000      2.50069793000000      0.41795646000000
  Pd  0.52758630000000     -1.63849236000000     -1.27104277000000
  Br  -1.14196608000000     -3.49298751000000     -1.68312820000000
  P   1.13954344000000     -2.92676828000000      0.38068712000000
  H   0.19462219000000     -3.32533104000000      1.34836262000000
  C   0.77146508000000     -0.84742954000000     -3.97253497000000
  O   1.69470118000000     -1.56936640000000     -4.10995789000000
  O   -0.00749579000000     -0.68326712000000     -2.97755096000000
  O   0.43651736000000      0.01961771000000     -4.99966334000000
  H   2.22094044000000     -2.62805444000000      1.26182372000000
  H   1.57302167000000     -4.20394663000000     -0.02651971000000
  H   1.12435813000000     -0.12049167000000     -5.67677872000000
