21
Coordinates from ORCA-job 3_0_orca
  C   -1.62222381000000      0.19300741000000     -0.41772817000000
  C   -1.92522598000000     -0.82273994000000     -1.31355534000000
  C   -1.48166496000000     -2.11078396000000     -1.05973579000000
  C   -0.64394091000000     -2.37309567000000      0.01313617000000
  C   -0.92263117000000     -0.13265638000000      0.73042357000000
  C   -0.34800958000000     -1.37157253000000      0.92335420000000
  H   -2.06927943000000      1.14844610000000     -0.66585343000000
  H   -2.58420678000000     -0.64004596000000     -2.14625557000000
  H   -1.80970301000000     -2.91999336000000     -1.69943349000000
  H   0.30556297000000     -1.64217831000000      1.74474358000000
  H   -0.30227390000000     -3.37911531000000      0.18923244000000
  Pd  1.42620198000000      1.15102560000000     -0.05753544000000
  O   3.02958616000000      1.15324326000000     -1.40074911000000
  O   2.63946145000000     -0.51130930000000     -0.09446787000000
  O   0.36766345000000      2.87027003000000      0.07790640000000
  C   0.05837586000000      2.99585070000000      1.26678721000000
  O   0.50563759000000      2.16336254000000      2.12786376000000
  H   -1.39551641000000      1.05830054000000      2.70612063000000
  C   3.28238045000000     -0.02307296000000     -1.05043286000000
  H   4.13657711000000     -0.57825949000000     -1.46657093000000
  H   -0.64676616000000      3.77130699000000      1.59275986000000
