21
Coordinates from ORCA-job 3_10_orca
  C   -1.58122706000000      0.21008246000000     -0.39273368000000
  C   -2.04619659000000     -0.83650680000000     -1.20317419000000
  C   -1.68228145000000     -2.15956700000000     -0.94985385000000
  C   -0.77738785000000     -2.38131057000000      0.08190709000000
  C   -0.78075289000000      0.01638553000000      0.78049899000000
  C   -0.33643544000000     -1.33001507000000      0.89088253000000
  H   -1.86253989000000      1.20480309000000     -0.69335507000000
  H   -2.69719987000000     -0.64713438000000     -2.05534398000000
  H   -2.08194006000000     -2.99818517000000     -1.55098071000000
  H   0.37633028000000     -1.57075334000000      1.65443919000000
  H   -0.43278151000000     -3.39626613000000      0.25360903000000
  Pd  1.29803084000000      1.00646036000000     -0.00155437000000
  O   3.19206226000000      1.32211629000000     -1.25333317000000
  O   2.55783191000000     -0.50885870000000     -0.23554130000000
  O   0.38534764000000      2.71012569000000      0.13302479000000
  C   -0.00297634000000      2.91720750000000      1.37535046000000
  O   0.27385747000000      2.12814586000000      2.27335689000000
  H   -0.76054140000000      0.79199315000000      1.73063088000000
  C   3.36113313000000      0.12014827000000     -0.99709840000000
  H   4.24637966000000     -0.41825937000000     -1.35839494000000
  H   -0.66301701000000      3.79623347000000      1.49856986000000
