21
Coordinates from ORCA-job 3_12_orca
  C   -1.56763406000000      0.21733244000000     -0.40101312000000
  C   -2.05968144000000     -0.83326324000000     -1.17681472000000
  C   -1.70993739000000     -2.14807131000000     -0.91783764000000
  C   -0.79925536000000     -2.37575004000000      0.09962898000000
  C   -0.73053943000000      0.00598933000000      0.72217222000000
  C   -0.32703454000000     -1.33398553000000      0.89617505000000
  H   -1.83903980000000      1.22150767000000     -0.68467125000000
  H   -2.70269888000000     -0.63354793000000     -2.02470418000000
  H   -2.09124289000000     -2.97173545000000     -1.51597726000000
  H   0.39457638000000     -1.56168261000000      1.66125858000000
  H   -0.44809069000000     -3.38233813000000      0.27489195000000
  Pd  1.28089806000000      0.96889632000000     -0.03878509000000
  O   3.17531837000000      1.34077968000000     -1.18982159000000
  O   2.54055685000000     -0.54301034000000     -0.27766808000000
  O   0.35656127000000      2.68213460000000      0.19007629000000
  C   -0.04228268000000      2.88355484000000      1.39913253000000
  O   0.10697349000000      2.12471313000000      2.33305231000000
  H   -0.52930357000000      0.75663600000000      1.45173762000000
  C   3.36831055000000      0.13169451000000     -0.97643594000000
  H   4.24917119000000     -0.39704327000000     -1.33977754000000
  H   -0.64125211000000      3.81437700000000      1.48941552000000
