21
Coordinates from ORCA-job 3_13_orca
  C   -1.56209285000000      0.22466496000000     -0.40952546000000
  C   -2.07084890000000     -0.82392201000000     -1.16041376000000
  C   -1.72753799000000     -2.13452255000000     -0.88710218000000
  C   -0.81064655000000     -2.37157395000000      0.12037990000000
  C   -0.70626122000000     -0.04351562000000      0.63995220000000
  C   -0.31934845000000     -1.33956397000000      0.90214877000000
  H   -1.82108947000000      1.23647237000000     -0.67902588000000
  H   -2.71233245000000     -0.62023597000000     -2.00045379000000
  H   -2.10898928000000     -2.95348974000000     -1.48470375000000
  H   0.40860906000000     -1.55674193000000      1.66854708000000
  H   -0.46130310000000     -3.37536040000000      0.29355121000000
  Pd  1.27739339000000      0.95520649000000     -0.06701387000000
  O   3.16141083000000      1.35329630000000     -1.13649351000000
  O   2.52702265000000     -0.56697661000000     -0.32034397000000
  O   0.33801099000000      2.65776103000000      0.21665301000000
  C   -0.07408442000000      2.87510404000000      1.40843133000000
  O   0.01081064000000      2.13384081000000      2.39300645000000
  H   -0.38142269000000      0.71912305000000      1.26943803000000
  C   3.37621516000000      0.14046183000000     -0.95262690000000
  H   4.26251121000000     -0.37685400000000     -1.32946115000000
  H   -0.62270945000000      3.82591235000000      1.48211928000000
