21
Coordinates from ORCA-job 3_3_orca
  C   -1.63717880000000      0.19649209000000     -0.43020541000000
  C   -1.94208135000000     -0.85250903000000     -1.29771648000000
  C   -1.51590706000000     -2.13172708000000     -1.05675323000000
  C   -0.68055048000000     -2.38267450000000      0.00687102000000
  C   -0.89415237000000     -0.06800605000000      0.77085193000000
  C   -0.33771556000000     -1.37867044000000      0.91897365000000
  H   -2.02672079000000      1.16393995000000     -0.66759996000000
  H   -2.61081365000000     -0.63942122000000     -2.13903346000000
  H   -1.86098040000000     -2.93388719000000     -1.67029292000000
  H   0.31768523000000     -1.62544651000000      1.72974521000000
  H   -0.32162857000000     -3.39411893000000      0.19968879000000
  Pd  1.39035915000000      1.13557021000000      0.02188125000000
  O   3.05992254000000      1.17590331000000     -1.40950599000000
  O   2.58974680000000     -0.50333411000000     -0.12284454000000
  O   0.39227142000000      2.86186647000000     -0.01761398000000
  C   0.06525995000000      2.93565035000000      1.35712391000000
  O   0.48169020000000      2.18299665000000      2.12974835000000
  H   -1.32793058000000      1.01227797000000      2.58707726000000
  C   3.34789152000000      0.02743834000000     -1.02112848000000
  H   4.15832971000000     -0.55566022000000     -1.46764965000000
  H   -0.64807476000000      3.77138326000000      1.57309199000000
