21
Coordinates from ORCA-job 3_5_orca
  C   -1.63483502000000      0.19242366000000     -0.42420736000000
  C   -1.96085965000000     -0.85602513000000     -1.29046422000000
  C   -1.54070712000000     -2.14423385000000     -1.04817734000000
  C   -0.69653002000000     -2.38931332000000      0.01495045000000
  C   -0.87509464000000     -0.04171050000000      0.78124659000000
  C   -0.34063907000000     -1.36997101000000      0.91003918000000
  H   -1.99930622000000      1.17614455000000     -0.67410447000000
  H   -2.62745014000000     -0.64193050000000     -2.12941613000000
  H   -1.90093390000000     -2.94890893000000     -1.65279027000000
  H   0.32941843000000     -1.61737458000000      1.71935779000000
  H   -0.33871864000000     -3.40098391000000      0.20620217000000
  Pd  1.37114953000000      1.12417561000000      0.05163022000000
  O   3.08503607000000      1.19507853000000     -1.40440219000000
  O   2.57387470000000     -0.49618137000000     -0.14495800000000
  O   0.39991672000000      2.84842758000000     -0.02805656000000
  C   0.07358442000000      2.90572073000000      1.37937460000000
  O   0.46181505000000      2.19743468000000      2.13110527000000
  H   -1.27594869000000      0.97952641000000      2.49800658000000
  C   3.36673230000000      0.05272420000000     -1.00285568000000
  H   4.17749609000000     -0.53748780000000     -1.46191665000000
  H   -0.64969706000000      3.76892388000000      1.56161215000000
