21
Coordinates from ORCA-job 3_8_orca
  C   -1.61425450000000      0.19716215000000     -0.37683095000000
  C   -2.00544628000000     -0.83568322000000     -1.25142004000000
  C   -1.60973192000000     -2.15865765000000     -1.00387533000000
  C   -0.72579409000000     -2.38321802000000      0.05592172000000
  C   -0.85885774000000     -0.01213425000000      0.80918931000000
  C   -0.35742738000000     -1.32798262000000      0.90658453000000
  H   -1.92998815000000      1.19778597000000     -0.68168474000000
  H   -2.66199404000000     -0.64728434000000     -2.09739852000000
  H   -2.00399774000000     -2.99392941000000     -1.61316484000000
  H   0.34894372000000     -1.59287383000000      1.68996504000000
  H   -0.38372043000000     -3.40449748000000      0.22498908000000
  Pd  1.33807800000000      1.08081161000000      0.04622923000000
  O   3.15004317000000      1.25993557000000     -1.35096133000000
  O   2.57085163000000     -0.48306238000000     -0.18594893000000
  O   0.38358343000000      2.78333619000000      0.11479417000000
  C   0.04959044000000      2.96897569000000      1.22817612000000
  O   0.45505306000000      2.14138209000000      2.24283959000000
  H   -1.07643585000000      0.82384974000000      2.10910842000000
  C   3.35148954000000      0.08887775000000     -0.99449340000000
  H   4.21894993000000     -0.47478920000000     -1.41339065000000
  H   -0.64841781000000      3.76034083000000      1.52782390000000
