21
Coordinates from ORCA-job 8_1_orca
  Sc  1.08427648000000     -0.72715276000000     -1.95733432000000
  C   0.33232120000000     -0.52528859000000      0.20773445000000
  N   -0.46610726000000     -1.34448096000000      0.94233398000000
  C   -0.71588991000000     -0.82500107000000      2.17827582000000
  C   -0.08524856000000      0.35958008000000      2.23525669000000
  N   0.53840334000000      0.53998191000000      1.04763180000000
  C   1.38221750000000      1.69279455000000      0.65953064000000
  H   1.28927018000000      2.47630591000000      1.43954071000000
  H   1.05426426000000      2.10287675000000     -0.25035997000000
  H   2.42220745000000      1.39736566000000      0.64419941000000
  C   -0.96247579000000     -2.64501695000000      0.52392477000000
  H   -0.69262931000000     -2.85161627000000     -0.50320316000000
  H   -2.04855720000000     -2.66347472000000      0.60068100000000
  H   -0.55316059000000     -3.43164743000000      1.16439756000000
  H   -1.32193686000000     -1.31499935000000      2.90693270000000
  H   -0.01588957000000      1.06838675000000      3.03367815000000
  C   -0.03601600000000      1.64648823000000     -2.85974250000000
  H   -0.63788325000000      1.57775341000000     -3.79909841000000
  H   0.57790948000000      2.51535206000000     -2.98736232000000
  H   -0.75571022000000      1.82668720000000     -2.07204032000000
  H   -0.38946526000000     -0.87384217000000     -3.15476103000000
