21
Coordinates from ORCA-job 8_3_orca
  Sc  1.01346205000000     -0.66336985000000     -2.02484989000000
  C   0.35629050000000     -0.54159879000000      0.23437013000000
  N   -0.45912185000000     -1.34639366000000      0.93612124000000
  C   -0.73520537000000     -0.81301169000000      2.16617937000000
  C   -0.10157149000000      0.37608921000000      2.21986092000000
  N   0.56000704000000      0.52729935000000      1.02305104000000
  C   1.39165218000000      1.67350596000000      0.67078528000000
  H   1.33599616000000      2.42510134000000      1.44361377000000
  H   1.03822570000000      2.11567493000000     -0.27560510000000
  H   2.43824634000000      1.36890012000000      0.58478979000000
  C   -0.96388912000000     -2.64782779000000      0.53415451000000
  H   -0.66862705000000     -2.87644452000000     -0.48984243000000
  H   -2.05060688000000     -2.65987148000000      0.56940675000000
  H   -0.58142009000000     -3.42559777000000      1.19330314000000
  H   -1.36173370000000     -1.29762001000000      2.89690315000000
  H   -0.04640067000000      1.10476279000000      3.01000833000000
  C   -0.06796180000000      1.63103448000000     -2.84165527000000
  H   -0.66578310000000      1.55367259000000     -3.75330358000000
  H   0.54082882000000      2.54337223000000     -2.95011028000000
  H   -0.78380349000000      1.78271019000000     -2.03326606000000
  H   -0.18815092000000     -0.82802840000000     -3.11302300000000
