21
Coordinates from ORCA-job 8_5_orca
  Sc  1.07990215000000     -0.51472731000000     -1.97812472000000
  C   0.38991711000000     -0.58458418000000      0.23434697000000
  N   -0.44760709000000     -1.35873008000000      0.94256133000000
  C   -0.77612371000000     -0.77877145000000      2.14288646000000
  C   -0.11654113000000      0.40747938000000      2.18536605000000
  N   0.58464855000000      0.50116820000000      1.00812876000000
  C   1.41006932000000      1.63567582000000      0.63555095000000
  H   1.41954493000000      2.35234767000000      1.45509401000000
  H   1.02446733000000      2.12465371000000     -0.26979359000000
  H   2.44332285000000      1.32019771000000      0.47348568000000
  C   -0.96801659000000     -2.65550124000000      0.54097601000000
  H   -0.62242110000000     -2.91838233000000     -0.45535956000000
  H   -2.05585468000000     -2.64880540000000      0.51739020000000
  H   -0.63305894000000     -3.41546426000000      1.24204675000000
  H   -1.42529125000000     -1.25731028000000      2.86844688000000
  H   -0.10106127000000      1.16040838000000      2.95769998000000
  C   -0.11664151000000      1.60210311000000     -2.78704092000000
  H   -0.73619005000000      1.51553427000000     -3.70620553000000
  H   0.45596918000000      2.54626265000000     -2.88307231000000
  H   -0.83789445000000      1.70597509000000     -1.95882837000000
  H   0.03200158000000     -0.73450137000000     -3.16420584000000
