21
Coordinates from ORCA-job 8_6_orca
  Sc  1.17271121000000     -0.42499455000000     -1.91419199000000
  C   0.40620960000000     -0.61253421000000      0.24278859000000
  N   -0.44447416000000     -1.36997717000000      0.94850087000000
  C   -0.79900951000000     -0.75118732000000      2.12344089000000
  C   -0.13212613000000      0.41790121000000      2.15860257000000
  N   0.60007153000000      0.48226170000000      0.99917488000000
  C   1.42364346000000      1.61436231000000      0.61689522000000
  H   1.47722711000000      2.30292287000000      1.45177081000000
  H   1.01418373000000      2.13137213000000     -0.25825439000000
  H   2.44041259000000      1.28585682000000      0.39649400000000
  C   -0.97183266000000     -2.66114654000000      0.54730437000000
  H   -0.58938815000000     -2.94469534000000     -0.43120965000000
  H   -2.05929115000000     -2.63850797000000      0.48420994000000
  H   -0.66958504000000     -3.41073656000000      1.27321889000000
  H   -1.46370497000000     -1.22246058000000      2.84213972000000
  H   -0.13455150000000      1.19570173000000      2.91750048000000
  C   -0.16758532000000      1.57646459000000     -2.75256926000000
  H   -0.78532972000000      1.49180318000000     -3.67501285000000
  H   0.39691672000000      2.52407462000000     -2.83972940000000
  H   -0.87521327000000      1.65274038000000     -1.91073711000000
  H   0.16579032000000     -0.63258845000000     -3.21913669000000
