21
Coordinates from ORCA-job 8_8_orca
  Sc  1.20596581000000     -0.39712103000000     -1.91794201000000
  C   0.41099993000000     -0.62363033000000      0.25089450000000
  N   -0.45303487000000     -1.37307497000000      0.95366667000000
  C   -0.80360716000000     -0.75133845000000      2.11413740000000
  C   -0.14375341000000      0.42329843000000      2.14968838000000
  N   0.59962573000000      0.47861124000000      1.00925755000000
  C   1.42592980000000      1.59870849000000      0.60562724000000
  H   1.49991167000000      2.29299256000000      1.43993709000000
  H   1.00430635000000      2.13534166000000     -0.24022796000000
  H   2.43499429000000      1.27050168000000      0.37024138000000
  C   -0.97324094000000     -2.66498087000000      0.55024763000000
  H   -0.57596984000000     -2.94703998000000     -0.41832569000000
  H   -2.05774441000000     -2.62860137000000      0.47669538000000
  H   -0.68618423000000     -3.41690097000000      1.28061166000000
  H   -1.47508217000000     -1.19514263000000      2.82358198000000
  H   -0.13857310000000      1.20142615000000      2.89100909000000
  C   -0.19347817000000      1.52449777000000     -2.73280584000000
  H   -0.80200015000000      1.47065996000000     -3.65389426000000
  H   0.38241362000000      2.44205132000000     -2.82666179000000
  H   -0.89638498000000      1.62800341000000     -1.90438055000000
  H   0.24155293000000     -0.46029693000000     -3.21980546000000
