21
Coordinates from ORCA-job 8_9_orca
  Sc  1.21923417000000     -0.34978734000000     -1.94042193000000
  C   0.41625567000000     -0.63033952000000      0.25684616000000
  N   -0.45861310000000     -1.37430478000000      0.94967218000000
  C   -0.80575132000000     -0.75060746000000      2.11356407000000
  C   -0.15853645000000      0.42375622000000      2.14500408000000
  N   0.59679730000000      0.47102967000000      1.01150740000000
  C   1.42588216000000      1.58440991000000      0.60194154000000
  H   1.52056957000000      2.28825210000000      1.42553831000000
  H   0.98722455000000      2.13810631000000     -0.22355167000000
  H   2.43514117000000      1.25303527000000      0.35006342000000
  C   -0.97432128000000     -2.66704505000000      0.55647116000000
  H   -0.56254674000000     -2.94420775000000     -0.40770276000000
  H   -2.05562695000000     -2.61713448000000      0.47278967000000
  H   -0.70115598000000     -3.42886293000000      1.28502627000000
  H   -1.49218617000000     -1.16862020000000      2.81133229000000
  H   -0.13871992000000      1.20914262000000      2.86958837000000
  C   -0.20281483000000      1.42394579000000     -2.70967475000000
  H   -0.81424731000000      1.43392603000000     -3.62351614000000
  H   0.38798793000000      2.31727559000000     -2.81649162000000
  H   -0.92270863000000      1.59972786000000     -1.90696265000000
  H   0.30722340000000     -0.20154059000000     -3.21948976000000
