21
Coordinates from ORCA-job 7_10_orca
  C   -1.58464440000000      0.19270238000000     -0.42036626000000
  C   -2.02099851000000     -0.84853548000000     -1.23488282000000
  C   -1.58374022000000     -2.14585499000000     -1.00983120000000
  C   -0.74910255000000     -2.39813237000000      0.06299990000000
  C   -0.67203542000000     -0.01422830000000      0.64941132000000
  C   -0.32786715000000     -1.36241069000000      0.88595923000000
  H   -1.92029644000000      1.20507628000000     -0.62853615000000
  H   -2.62542788000000     -0.64134359000000     -2.09514105000000
  H   -1.88668254000000     -2.96020244000000     -1.66842414000000
  H   0.34677493000000     -1.56041720000000      1.71108268000000
  H   -0.36711854000000     -3.38395446000000      0.22935440000000
  Pd  1.25038271000000      0.96593590000000      0.01108779000000
  O   3.08006217000000      1.25486509000000     -1.29679729000000
  O   2.52633598000000     -0.55162753000000     -0.19068517000000
  O   0.35270193000000      2.72382149000000      0.22890644000000
  C   -0.06325095000000      2.89346681000000      1.33827746000000
  O   -0.03376335000000      2.00131481000000      2.30714076000000
  H   -0.54291915000000      1.20289155000000      1.97895097000000
  C   3.28120801000000      0.06480414000000     -1.00203616000000
  H   4.13873098000000     -0.49000532000000     -1.39717972000000
  H   -0.60147286000000      3.83317230000000      1.51946407000000
