21
Coordinates from ORCA-job 7_11_orca
  C   -1.58910439000000      0.19696225000000     -0.39703071000000
  C   -2.01082633000000     -0.84251578000000     -1.22480246000000
  C   -1.56076304000000     -2.13580856000000     -1.01473304000000
  C   -0.74266850000000     -2.38950187000000      0.06760567000000
  C   -0.68602379000000     -0.02153417000000      0.66839771000000
  C   -0.33864912000000     -1.35864731000000      0.90938658000000
  H   -1.93475174000000      1.21440735000000     -0.58983584000000
  H   -2.59710509000000     -0.62596713000000     -2.09641349000000
  H   -1.82133896000000     -2.93620600000000     -1.69510223000000
  H   0.33249493000000     -1.55158205000000      1.74385558000000
  H   -0.34125113000000     -3.37049543000000      0.23004205000000
  Pd  1.23934975000000      0.94702750000000      0.00158339000000
  O   3.02642782000000      1.24339295000000     -1.28757221000000
  O   2.50382403000000     -0.57053575000000     -0.18399206000000
  O   0.34946041000000      2.69310929000000      0.23606993000000
  C   -0.09925883000000      2.88998243000000      1.36668323000000
  O   -0.13500232000000      2.00692954000000      2.32383218000000
  H   -0.37436928000000      1.17382320000000      1.78702193000000
  C   3.24413147000000      0.05198872000000     -1.00015932000000
  H   4.09818294000000     -0.49853867000000     -1.39567212000000
  H   -0.56651489000000      3.86170880000000      1.52391822000000
