21
Coordinates from ORCA-job 7_13_orca
  C   -1.56543189000000      0.19913733000000     -0.41432954000000
  C   -2.01957332000000     -0.83845528000000     -1.21795945000000
  C   -1.56874938000000     -2.13365126000000     -1.00224524000000
  C   -0.75163384000000     -2.39590117000000      0.08944723000000
  C   -0.60733180000000     -0.03250694000000      0.58699153000000
  C   -0.31393936000000     -1.36035350000000      0.89632114000000
  H   -1.90992783000000      1.20897943000000     -0.61176581000000
  H   -2.62604617000000     -0.62013013000000     -2.08975747000000
  H   -1.82344062000000     -2.92886864000000     -1.69205543000000
  H   0.35371561000000     -1.56125066000000      1.72308013000000
  H   -0.35611740000000     -3.39050707000000      0.24746010000000
  Pd  1.22360603000000      0.93857601000000     -0.01782795000000
  O   3.00652960000000      1.23653876000000     -1.24830610000000
  O   2.48832528000000     -0.60475092000000     -0.21138705000000
  O   0.32851364000000      2.69387349000000      0.24736633000000
  C   -0.12532061000000      2.91052847000000      1.37306068000000
  O   -0.17940075000000      2.08132583000000      2.33257620000000
  H   -0.35680235000000      1.13515024000000      1.81001496000000
  C   3.25500382000000      0.04397814000000     -0.98191452000000
  H   4.11038931000000     -0.49313289000000     -1.40763399000000
  H   -0.56776565000000      3.88462113000000      1.55679137000000
