21
Coordinates from ORCA-job 7_14_orca
  C   -1.54144667000000      0.19910876000000     -0.43431210000000
  C   -2.02916912000000     -0.83941849000000     -1.21938977000000
  C   -1.57892846000000     -2.13682427000000     -0.99351045000000
  C   -0.76029645000000     -2.40664549000000      0.09791451000000
  C   -0.54810241000000     -0.03411669000000      0.53296793000000
  C   -0.29005479000000     -1.36092593000000      0.87564195000000
  H   -1.88639355000000      1.20410538000000     -0.63875640000000
  H   -2.65331506000000     -0.62312032000000     -2.08156115000000
  H   -1.84370670000000     -2.93439104000000     -1.68518629000000
  H   0.37506209000000     -1.56929900000000      1.69836504000000
  H   -0.37762738000000     -3.40641402000000      0.26013887000000
  Pd  1.21255731000000      0.93914935000000     -0.02311907000000
  O   3.01496238000000      1.23548767000000     -1.22592745000000
  O   2.48548655000000     -0.62330465000000     -0.23010861000000
  O   0.31825394000000      2.70779841000000      0.23930612000000
  C   -0.13418620000000      2.93425915000000      1.37645616000000
  O   -0.19122663000000      2.08477062000000      2.33053176000000
  H   -0.39248780000000      1.15274140000000      1.90343875000000
  C   3.26498884000000      0.03928252000000     -0.97542406000000
  H   4.12858107000000     -0.48596528000000     -1.41449857000000
  H   -0.57935965000000      3.89371253000000      1.57262696000000
