21
Coordinates from ORCA-job 7_16_orca
  C   -1.53153149000000      0.19845134000000     -0.44333506000000
  C   -2.03245628000000     -0.84091456000000     -1.21948062000000
  C   -1.58427189000000     -2.13900781000000     -0.99063086000000
  C   -0.76446729000000     -2.41032103000000      0.09981518000000
  C   -0.52676433000000     -0.03569642000000      0.51213269000000
  C   -0.28050190000000     -1.36205415000000      0.86654625000000
  H   -1.87621633000000      1.20302969000000     -0.65068960000000
  H   -2.66462105000000     -0.62469353000000     -2.07718411000000
  H   -1.85309942000000     -2.93612002000000     -1.68058127000000
  H   0.38518350000000     -1.57272018000000      1.68826581000000
  H   -0.38738263000000     -3.41261785000000      0.26573424000000
  Pd  1.20952996000000      0.93991774000000     -0.02591232000000
  O   3.02020341000000      1.23576349000000     -1.21642085000000
  O   2.48498871000000     -0.63040018000000     -0.23783465000000
  O   0.31155740000000      2.71558333000000      0.24265378000000
  C   -0.13477966000000      2.93798951000000      1.36984686000000
  O   -0.19648066000000      2.08592729000000      2.33243233000000
  H   -0.40580498000000      1.16259426000000      1.94008703000000
  C   3.26850244000000      0.03747939000000     -0.97368845000000
  H   4.13587113000000     -0.48220912000000     -1.41608007000000
  H   -0.58435924000000      3.89864413000000      1.57890129000000
