21
Coordinates from ORCA-job 7_1_orca
  C   -1.55498283000000      0.16784740000000     -0.56331977000000
  C   -2.06699713000000     -0.88238837000000     -1.27350498000000
  C   -1.70208449000000     -2.17645282000000     -0.97141172000000
  C   -0.78650964000000     -2.44513660000000      0.04374377000000
  C   -0.60629318000000     -0.05464890000000      0.49489300000000
  C   -0.27144831000000     -1.41393756000000      0.79074174000000
  H   -1.85980924000000      1.17807174000000     -0.84983069000000
  H   -2.78094976000000     -0.68738253000000     -2.06169886000000
  H   -2.15650257000000     -2.99309054000000     -1.49970562000000
  H   0.46058863000000     -1.64092257000000      1.57444195000000
  H   -0.49302396000000     -3.45263700000000      0.25544638000000
  Pd  1.37856845000000      1.07188370000000     -0.06017883000000
  O   3.25024119000000      1.29721172000000     -1.25138770000000
  O   2.62421020000000     -0.53140090000000     -0.25450175000000
  O   0.38556790000000      2.83343248000000      0.06615447000000
  C   -0.01261815000000      2.89161612000000      1.41068478000000
  O   0.29429738000000      2.14766873000000      2.20391833000000
  H   -1.16626732000000      1.28847098000000      2.77214774000000
  C   3.46160848000000      0.09652288000000     -0.99536571000000
  H   4.32700370000000     -0.43860618000000     -1.40282204000000
  H   -0.72470642000000      3.74147640000000      1.56879203000000
