21
Coordinates from ORCA-job 7_2_orca
  C   -1.53955417000000      0.18032391000000     -0.56198829000000
  C   -2.06462668000000     -0.87755172000000     -1.27377599000000
  C   -1.70492812000000     -2.17534834000000     -0.96562770000000
  C   -0.78212831000000     -2.43766320000000      0.03877260000000
  C   -0.64052852000000     -0.09334257000000      0.48457001000000
  C   -0.26387528000000     -1.40702110000000      0.79675969000000
  H   -1.86536414000000      1.17257410000000     -0.86424134000000
  H   -2.78557851000000     -0.68944951000000     -2.05702347000000
  H   -2.16709639000000     -2.99431726000000     -1.49377272000000
  H   0.46429472000000     -1.65049270000000      1.56807694000000
  H   -0.49873957000000     -3.45239272000000      0.25802990000000
  Pd  1.41128584000000      1.09197524000000     -0.08793526000000
  O   3.25046653000000      1.29798411000000     -1.24101676000000
  O   2.64259793000000     -0.53555863000000     -0.25511248000000
  O   0.37370558000000      2.83299206000000      0.10503575000000
  C   -0.01164976000000      2.92379207000000      1.35333041000000
  O   0.32626550000000      2.13891785000000      2.21277029000000
  H   -1.20106184000000      1.28369574000000      2.80588161000000
  C   3.45466065000000      0.09098627000000     -1.00284283000000
  H   4.33162908000000     -0.43632345000000     -1.39660911000000
  H   -0.72982192000000      3.73508244000000      1.57542228000000
