21
Coordinates from ORCA-job 7_9_orca
  C   -1.57614000000000      0.18947019000000     -0.44300983000000
  C   -2.02874562000000     -0.85332722000000     -1.24298799000000
  C   -1.60213480000000     -2.15554640000000     -1.00899849000000
  C   -0.75459637000000     -2.40434518000000      0.06299380000000
  C   -0.64424511000000     -0.02375390000000      0.59791844000000
  C   -0.31394717000000     -1.36314858000000      0.86385796000000
  H   -1.90892231000000      1.19204337000000     -0.67189216000000
  H   -2.65754257000000     -0.65517541000000     -2.09891591000000
  H   -1.94410626000000     -2.98041403000000     -1.64614803000000
  H   0.36191006000000     -1.57438175000000      1.67620044000000
  H   -0.38987330000000     -3.40428093000000      0.22899890000000
  Pd  1.26071134000000      0.98706658000000      0.01614106000000
  O   3.12440562000000      1.25943006000000     -1.30592906000000
  O   2.54867632000000     -0.53844837000000     -0.19680539000000
  O   0.36574454000000      2.75621087000000      0.19635588000000
  C   -0.04977212000000      2.89523238000000      1.34356453000000
  O   0.05406932000000      2.02558941000000      2.28359856000000
  H   -0.71690230000000      1.24222005000000      2.20802522000000
  C   3.32125138000000      0.07255195000000     -1.00072487000000
  H   4.17917302000000     -0.48662987000000     -1.40601509000000
  H   -0.63061879000000      3.80499879000000      1.52740599000000
