38
Coordinates from ORCA-job 7_10_orca
  Pd  0.48461489000000      0.32877386000000     -0.14482434000000
  O   1.90827216000000      1.26455917000000      0.61947773000000
  C   1.69899306000000      2.56005083000000      0.35280612000000
  O   0.53894269000000      2.95307501000000     -0.22074022000000
  C   2.76382489000000      3.59664230000000      0.63345137000000
  H   2.29986852000000      4.49696130000000      1.05081301000000
  H   3.22753095000000      3.92378198000000     -0.30622643000000
  H   3.57103174000000      3.28086818000000      1.30784632000000
  N   -1.42822706000000     -0.81365680000000     -1.05894510000000
  C   -1.19145399000000     -2.00329930000000     -1.90567058000000
  H   -0.56163231000000     -1.70314648000000     -2.73448908000000
  H   -2.20656377000000     -2.32358734000000     -2.18152266000000
  H   -0.69284240000000     -2.77737805000000     -1.30921197000000
  C   -2.05296636000000      0.27533321000000     -1.84640907000000
  H   -2.15118946000000      1.20392611000000     -1.27498311000000
  H   -3.03650332000000     -0.09483222000000     -2.15932841000000
  H   -1.41493234000000      0.43684493000000     -2.72164775000000
  C   -1.73188442000000     -1.02219116000000      1.51062344000000
  C   -1.61733105000000     -2.16799937000000      2.34546489000000
  C   -1.21532109000000     -2.01954455000000      3.65411056000000
  C   -1.10008537000000     -0.75903343000000      4.19576043000000
  C   -1.15233255000000      0.39220335000000      3.39248347000000
  C   -1.33208104000000      0.16251037000000      2.06577077000000
  H   -0.81722205000000     -0.61809328000000      5.22440135000000
  H   -1.20309253000000      1.37000180000000      3.81913032000000
  H   -1.82434280000000     -3.16934139000000      1.94466777000000
  H   -1.26817010000000     -2.87706940000000      4.32403364000000
  H   -1.74423513000000      3.37472905000000      1.25861187000000
  C   -2.26685874000000     -1.17304733000000      0.12753257000000
  H   -3.11442049000000     -0.49696263000000      0.13939397000000
  H   -2.64894035000000     -2.18493689000000     -0.05564932000000
  O   1.83171094000000      0.27371185000000     -1.71954386000000
  C   2.20761995000000     -0.67628624000000     -2.54205981000000
  O   1.67721787000000     -1.72362348000000     -2.83653903000000
  C   3.64063380000000     -0.35512694000000     -3.09691346000000
  H   3.96344896000000     -1.32121235000000     -3.50185426000000
  H   4.38446666000000      0.04396412000000     -2.40852811000000
  H   3.57281463000000      0.33525550000000     -3.94557631000000
