38
Coordinates from ORCA-job 7_12_orca
  Pd  0.47152376000000      0.36968185000000     -0.13571571000000
  O   1.88198334000000      1.30440250000000      0.62266328000000
  C   1.68654433000000      2.53276962000000      0.35493494000000
  O   0.50856803000000      2.95501879000000     -0.22545016000000
  C   2.74882652000000      3.57597812000000      0.63245852000000
  H   2.28329770000000      4.47495610000000      1.04574170000000
  H   3.21462671000000      3.91017976000000     -0.30521926000000
  H   3.56476039000000      3.27751994000000      1.30643486000000
  N   -1.42115860000000     -0.80048090000000     -1.05420352000000
  C   -1.19408446000000     -1.99095511000000     -1.92916325000000
  H   -0.54351094000000     -1.66828387000000     -2.75275779000000
  H   -2.22345635000000     -2.31826177000000     -2.18209490000000
  H   -0.68469419000000     -2.78400755000000     -1.35229343000000
  C   -2.06739199000000      0.28890953000000     -1.83475311000000
  H   -2.16834947000000      1.21605413000000     -1.24248798000000
  H   -3.05946375000000     -0.06981141000000     -2.15420839000000
  H   -1.42209503000000      0.47208762000000     -2.70389385000000
  C   -1.76370866000000     -1.00675750000000      1.52367786000000
  C   -1.63140955000000     -2.15554777000000      2.33824480000000
  C   -1.19945479000000     -2.01416408000000      3.64892174000000
  C   -1.12262676000000     -0.74070898000000      4.20416590000000
  C   -1.14890294000000      0.40987880000000      3.41011820000000
  C   -1.29998319000000      0.18152032000000      2.06831468000000
  H   -0.83618380000000     -0.60574236000000      5.22821969000000
  H   -1.22098135000000      1.41231926000000      3.81358843000000
  H   -1.72275725000000     -3.17807996000000      1.89059769000000
  H   -1.17552505000000     -2.88657879000000      4.29614778000000
  H   -1.75315597000000      3.26712141000000      1.28026108000000
  C   -2.25518204000000     -1.17720444000000      0.10632867000000
  H   -3.10371264000000     -0.50875915000000      0.11757607000000
  H   -2.59297427000000     -2.20970145000000     -0.07918735000000
  O   1.88201751000000      0.26557169000000     -1.70320341000000
  C   2.18582878000000     -0.70341673000000     -2.54434054000000
  O   1.62229219000000     -1.71051531000000     -2.88442692000000
  C   3.63487260000000     -0.38175266000000     -3.06950367000000
  H   3.92135049000000     -1.36553735000000     -3.44435729000000
  H   4.38824704000000      0.03284057000000     -2.37499995000000
  H   3.61602179000000      0.31679831000000     -3.92033211000000
