38
Coordinates from ORCA-job 7_13_orca
  Pd  0.42055889000000      0.37066284000000     -0.16102597000000
  O   1.86484055000000      1.35994950000000      0.64037787000000
  C   1.67348804000000      2.55361225000000      0.35134987000000
  O   0.50236695000000      2.93560858000000     -0.21370790000000
  C   2.72541736000000      3.55669471000000      0.62835897000000
  H   2.26531735000000      4.44695686000000      1.04050491000000
  H   3.19687272000000      3.88842776000000     -0.30246217000000
  H   3.55068827000000      3.26548743000000      1.30226106000000
  N   -1.38099390000000     -0.76279566000000     -1.02909844000000
  C   -1.20147279000000     -1.95968927000000     -1.93357068000000
  H   -0.53787748000000     -1.64498287000000     -2.76764638000000
  H   -2.22413397000000     -2.31626182000000     -2.19453796000000
  H   -0.68037630000000     -2.78058457000000     -1.40487864000000
  C   -2.07521859000000      0.29009071000000     -1.82051958000000
  H   -2.18523703000000      1.21738906000000     -1.21469827000000
  H   -3.07918436000000     -0.03668571000000     -2.15176879000000
  H   -1.43866690000000      0.51278140000000     -2.68107065000000
  C   -1.75947594000000     -1.00448994000000      1.52148863000000
  C   -1.62906523000000     -2.15504986000000      2.32072443000000
  C   -1.21196151000000     -2.00187704000000      3.64885653000000
  C   -1.12209621000000     -0.72153206000000      4.21098933000000
  C   -1.15716414000000      0.42858644000000      3.42000779000000
  C   -1.28687399000000      0.20830753000000      2.05322374000000
  H   -0.86265643000000     -0.59495373000000      5.24337712000000
  H   -1.22325907000000      1.44903451000000      3.80857240000000
  H   -1.62154396000000     -3.15686246000000      1.84445149000000
  H   -1.07099466000000     -2.89264316000000      4.26373762000000
  H   -1.75369490000000      3.12391357000000      1.30431495000000
  C   -2.25239510000000     -1.17721795000000      0.08308781000000
  H   -3.10897529000000     -0.52387417000000      0.08459352000000
  H   -2.53685465000000     -2.22623779000000     -0.09321032000000
  O   1.90517349000000      0.22021432000000     -1.69202401000000
  C   2.21316215000000     -0.65421866000000     -2.50918526000000
  O   1.54810717000000     -1.70738807000000     -2.93176002000000
  C   3.61737241000000     -0.42657923000000     -3.05587550000000
  H   3.89234352000000     -1.40696365000000     -3.38756811000000
  H   4.37347479000000      0.01062867000000     -2.33882360000000
  H   3.65498947000000      0.29069107000000     -3.89001273000000
