38
Coordinates from ORCA-job 7_16_orca
  Pd  0.34296683000000      0.30679489000000     -0.23221095000000
  O   1.83957586000000      1.37789512000000      0.66854601000000
  C   1.58813700000000      2.60871828000000      0.32479707000000
  O   0.58679983000000      2.89965485000000     -0.15495788000000
  C   2.72509734000000      3.57462947000000      0.62680347000000
  H   2.24488351000000      4.43899539000000      1.04809547000000
  H   3.17883984000000      3.85719946000000     -0.30927360000000
  H   3.50545350000000      3.22509419000000      1.28757065000000
  N   -1.32618270000000     -0.71929652000000     -1.00379326000000
  C   -1.18726089000000     -1.90007737000000     -1.90101201000000
  H   -0.58275372000000     -1.67121356000000     -2.75547147000000
  H   -2.17554256000000     -2.29538870000000     -2.22383516000000
  H   -0.68931259000000     -2.74628401000000     -1.44810500000000
  C   -2.05713170000000      0.29797096000000     -1.79606827000000
  H   -2.19372265000000      1.18719354000000     -1.21860893000000
  H   -3.06227189000000     -0.00798357000000     -2.14968101000000
  H   -1.46759260000000      0.55198407000000     -2.66369726000000
  C   -1.66667605000000     -1.00526192000000      1.46371611000000
  C   -1.56227777000000     -2.12119324000000      2.31133373000000
  C   -1.27370621000000     -1.98209684000000      3.65950369000000
  C   -1.07971108000000     -0.70621340000000      4.19661582000000
  C   -1.17756325000000      0.43519942000000      3.37174190000000
  C   -1.34068810000000      0.23813676000000      2.00921881000000
  H   -0.89770021000000     -0.59260933000000      5.27513751000000
  H   -1.15803507000000      1.43740372000000      3.80140206000000
  H   -1.57643694000000     -3.10393138000000      1.83067295000000
  H   -0.99408486000000     -2.87570946000000      4.22918904000000
  H   -1.71270013000000      2.89616754000000      1.32674162000000
  C   -2.24218635000000     -1.15369194000000      0.10370836000000
  H   -3.16078076000000     -0.54488111000000      0.03558634000000
  H   -2.51610743000000     -2.20515018000000     -0.07750969000000
  O   1.79034588000000      0.24950306000000     -1.68853644000000
  C   2.21592056000000     -0.68676076000000     -2.49230214000000
  O   1.61256851000000     -1.66778814000000     -2.82552323000000
  C   3.61450568000000     -0.44099093000000     -3.04942455000000
  H   3.92341822000000     -1.43749969000000     -3.37343416000000
  H   4.28768570000000     -0.02822920000000     -2.33423708000000
  H   3.65617272000000      0.26866343000000     -3.87837123000000
