38
Coordinates from ORCA-job 7_18_orca
  Pd  0.34265486000000      0.29926885000000     -0.23481093000000
  O   1.77701712000000      1.32349186000000      0.67966323000000
  C   1.58205678000000      2.57444690000000      0.36170476000000
  O   0.52599886000000      2.95728084000000     -0.17474343000000
  C   2.69805553000000      3.57748953000000      0.62432448000000
  H   2.22208478000000      4.46129357000000      1.06304852000000
  H   3.16397816000000      3.83587393000000     -0.33516127000000
  H   3.45798053000000      3.17435318000000      1.28028720000000
  N   -1.35710705000000     -0.72100184000000     -1.04764133000000
  C   -1.17632538000000     -1.87002861000000     -1.90760390000000
  H   -0.60978871000000     -1.65132064000000     -2.77367227000000
  H   -2.12866195000000     -2.23210974000000     -2.23937934000000
  H   -0.67534153000000     -2.71077332000000     -1.47306186000000
  C   -2.05154654000000      0.32971258000000     -1.78874422000000
  H   -2.21470234000000      1.20029006000000     -1.17928690000000
  H   -3.03020262000000      0.00646210000000     -2.12732197000000
  H   -1.48516847000000      0.61392880000000     -2.65638929000000
  C   -1.60889028000000     -0.94495577000000      1.43742726000000
  C   -1.47410692000000     -2.07204573000000      2.28661096000000
  C   -1.23685664000000     -1.95134677000000      3.64398525000000
  C   -1.08958075000000     -0.67756889000000      4.18503924000000
  C   -1.18164377000000      0.44652535000000      3.34206248000000
  C   -1.41038474000000      0.30742317000000      1.99225348000000
  H   -0.94071049000000     -0.57838083000000      5.26865580000000
  H   -1.09657007000000      1.42053918000000      3.78167984000000
  H   -1.49799963000000     -3.05888570000000      1.80735797000000
  H   -0.91225148000000     -2.84349435000000      4.18713770000000
  H   -1.66050250000000      2.51497841000000      1.36562929000000
  C   -2.22100047000000     -1.13412770000000      0.10336573000000
  H   -3.18303307000000     -0.59436358000000     -0.00663792000000
  H   -2.46878903000000     -2.17893429000000     -0.06553684000000
  O   1.71862924000000      0.25892519000000     -1.66898612000000
  C   2.18627001000000     -0.65866059000000     -2.46722225000000
  O   1.61212462000000     -1.67545015000000     -2.77087033000000
  C   3.59822409000000     -0.48106875000000     -3.02854153000000
  H   3.95490150000000     -1.47576978000000     -3.34036550000000
  H   4.23868920000000     -0.07562653000000     -2.27124080000000
  H   3.65809274000000      0.21881988000000     -3.86390308000000
