38
Coordinates from ORCA-job 7_19_orca
  Pd  0.36220016000000      0.29731979000000     -0.20954195000000
  O   1.76302561000000      1.30628835000000      0.67143397000000
  C   1.56517920000000      2.55625367000000      0.36181644000000
  O   0.52480762000000      2.97479091000000     -0.17199334000000
  C   2.68697131000000      3.57368486000000      0.62506231000000
  H   2.22851185000000      4.47538650000000      1.06504174000000
  H   3.16297058000000      3.84039371000000     -0.33773901000000
  H   3.45536486000000      3.17016679000000      1.28323620000000
  N   -1.37856874000000     -0.72743895000000     -1.05727937000000
  C   -1.17499260000000     -1.88315837000000     -1.91902795000000
  H   -0.60481538000000     -1.63989494000000     -2.78661532000000
  H   -2.13655608000000     -2.22058542000000     -2.23958884000000
  H   -0.66550756000000     -2.70795973000000     -1.44939567000000
  C   -2.05169990000000      0.33861133000000     -1.79738242000000
  H   -2.21395060000000      1.21419776000000     -1.16971749000000
  H   -3.02327696000000     -0.00560199000000     -2.12496939000000
  H   -1.47661654000000      0.61841059000000     -2.66713505000000
  C   -1.61420739000000     -0.93237605000000      1.44208891000000
  C   -1.45584210000000     -2.06310117000000      2.27616929000000
  C   -1.19831188000000     -1.94992641000000      3.62972324000000
  C   -1.10149223000000     -0.67344531000000      4.17948652000000
  C   -1.17215907000000      0.44140647000000      3.35029149000000
  C   -1.42526841000000      0.34227041000000      1.99581192000000
  H   -0.94129296000000     -0.57227953000000      5.24893837000000
  H   -1.08401460000000      1.41291112000000      3.77764626000000
  H   -1.51267947000000     -3.05599391000000      1.81936774000000
  H   -0.93661448000000     -2.83208613000000      4.19084791000000
  H   -1.63854165000000      2.43407465000000      1.36708299000000
  C   -2.22302835000000     -1.13062511000000      0.08857865000000
  H   -3.17445622000000     -0.60286182000000      0.00491135000000
  H   -2.47473903000000     -2.17238859000000     -0.05584748000000
  O   1.72465918000000      0.26325726000000     -1.67629285000000
  C   2.16619178000000     -0.66566262000000     -2.46600206000000
  O   1.61069232000000     -1.68989090000000     -2.76619949000000
  C   3.59407470000000     -0.47801661000000     -3.02451327000000
  H   3.96900308000000     -1.46096479000000     -3.34721905000000
  H   4.25006054000000     -0.07534031000000     -2.25507511000000
  H   3.64384203000000      0.21328503000000     -3.86833537000000
