38
Coordinates from ORCA-job 7_1_orca
  Pd  0.44370340000000      0.17396720000000     -0.21755890000000
  O   1.99741632000000      1.26589571000000      0.63873752000000
  C   1.62079327000000      2.65450469000000      0.29056802000000
  O   0.73426981000000      2.89533136000000     -0.13923574000000
  C   2.80841770000000      3.63305996000000      0.64407112000000
  H   2.33469638000000      4.53644688000000      1.06229273000000
  H   3.24949230000000      3.94155471000000     -0.30229811000000
  H   3.56884631000000      3.28386561000000      1.30028196000000
  N   -1.39302845000000     -0.80831282000000     -1.02824172000000
  C   -1.19071367000000     -2.00397178000000     -1.82308201000000
  H   -0.61142680000000     -1.80337715000000     -2.68264513000000
  H   -2.15772237000000     -2.35312191000000     -2.19467011000000
  H   -0.71705389000000     -2.75786482000000     -1.22061030000000
  C   -2.00782699000000      0.22754504000000     -1.86341419000000
  H   -2.10843973000000      1.15568430000000     -1.36212558000000
  H   -2.98958827000000     -0.13881398000000     -2.18280662000000
  H   -1.40560879000000      0.35998451000000     -2.75861536000000
  C   -1.63170259000000     -1.07400011000000      1.46188599000000
  C   -1.58740215000000     -2.20253294000000      2.35391992000000
  C   -1.29663195000000     -2.02825040000000      3.67877567000000
  C   -1.01801216000000     -0.79392868000000      4.17435336000000
  C   -1.16378283000000      0.34487837000000      3.35138497000000
  C   -1.41002562000000      0.13023758000000      2.02679994000000
  H   -0.78227268000000     -0.64831167000000      5.23540316000000
  H   -1.13420700000000      1.28697709000000      3.83594956000000
  H   -2.06055995000000     -3.12801378000000      2.06882457000000
  H   -1.46728372000000     -2.85734662000000      4.38361581000000
  H   -1.70705308000000      3.57478565000000      1.20920572000000
  C   -2.29917308000000     -1.15165485000000      0.16487342000000
  H   -3.15778131000000     -0.46207318000000      0.17495279000000
  H   -2.78147667000000     -2.12331218000000      0.00676479000000
  O   1.68481575000000      0.28963592000000     -1.78148023000000
  C   2.27736447000000     -0.67725165000000     -2.51658696000000
  O   1.83419213000000     -1.69266923000000     -2.68665159000000
  C   3.63711571000000     -0.29857970000000     -3.17284534000000
  H   4.07333833000000     -1.20712580000000     -3.63681627000000
  H   4.34437058000000      0.06976969000000     -2.49547125000000
  H   3.46860661000000      0.38590177000000     -3.99896993000000
