38
Coordinates from ORCA-job 7_24_orca
  Pd  0.33790599000000      0.21815673000000     -0.18070791000000
  O   1.72071114000000      1.35710607000000      0.68901721000000
  C   1.51345055000000      2.59291766000000      0.40711348000000
  O   0.41376721000000      3.02227755000000     -0.06177337000000
  C   2.64197936000000      3.56572750000000      0.64034203000000
  H   2.25282271000000      4.48786649000000      1.05126581000000
  H   3.09813217000000      3.83574044000000     -0.30875485000000
  H   3.42086489000000      3.18077351000000      1.28795237000000
  N   -1.36187504000000     -0.71492317000000     -1.04400813000000
  C   -1.19342027000000     -1.87634875000000     -1.93142978000000
  H   -0.59940158000000     -1.60901419000000     -2.79376900000000
  H   -2.18764685000000     -2.22894252000000     -2.24631992000000
  H   -0.67162006000000     -2.66349269000000     -1.39782721000000
  C   -2.04293565000000      0.35362196000000     -1.80068948000000
  H   -2.19637508000000      1.23561037000000     -1.18164485000000
  H   -3.02020541000000     -0.00201090000000     -2.14806753000000
  H   -1.44725397000000      0.63367311000000     -2.66254613000000
  C   -1.61863744000000     -0.90582336000000      1.41970716000000
  C   -1.43322478000000     -2.04973743000000      2.23365640000000
  C   -1.13036014000000     -1.93761462000000      3.58002029000000
  C   -1.04305655000000     -0.66181973000000      4.10682799000000
  C   -1.10967198000000      0.46672869000000      3.28379648000000
  C   -1.35131142000000      0.42117968000000      1.91234811000000
  H   -0.94401475000000     -0.51869968000000      5.17738168000000
  H   -1.00032127000000      1.42678142000000      3.74578446000000
  H   -1.61769400000000     -3.05724474000000      1.86463529000000
  H   -1.04683925000000     -2.80760376000000      4.22036306000000
  H   -1.34981403000000      2.02670990000000      1.29536044000000
  C   -2.24525885000000     -1.13362149000000      0.09196897000000
  H   -3.17699502000000     -0.56503302000000      0.08992906000000
  H   -2.54256700000000     -2.18196464000000     -0.03332357000000
  O   1.74777255000000      0.13801103000000     -1.61668221000000
  C   2.18747172000000     -0.74077831000000     -2.45256493000000
  O   1.58957738000000     -1.71218086000000     -2.84454184000000
  C   3.59523343000000     -0.46432314000000     -2.98547387000000
  H   4.03878880000000     -1.37233823000000     -3.37054798000000
  H   4.24736031000000     -0.05214986000000     -2.23150123000000
  H   3.56147341000000      0.23619922000000     -3.81078040000000
