38
Coordinates from ORCA-job 7_28_orca
  Pd  0.28826594000000      0.22333178000000     -0.12284507000000
  O   1.62668992000000      1.41933682000000      0.71209324000000
  C   1.36686103000000      2.67295045000000      0.50736425000000
  O   0.27361772000000      3.10561811000000      0.21860877000000
  C   2.58166104000000      3.58757853000000      0.66392600000000
  H   2.26294952000000      4.54916441000000      1.06978128000000
  H   3.00646099000000      3.78867899000000     -0.32787646000000
  H   3.37338200000000      3.16146792000000      1.28706349000000
  N   -1.41121354000000     -0.72965386000000     -1.03093206000000
  C   -1.18595170000000     -1.89253807000000     -1.89022559000000
  H   -0.55183204000000     -1.63513488000000     -2.72774695000000
  H   -2.15215114000000     -2.27603407000000     -2.22860341000000
  H   -0.68261654000000     -2.65674072000000     -1.31399193000000
  C   -2.02869183000000      0.32590330000000     -1.82731836000000
  H   -2.17115574000000      1.22057752000000     -1.23127339000000
  H   -2.99967478000000     -0.01571234000000     -2.19108394000000
  H   -1.38767662000000      0.58240758000000     -2.66651149000000
  C   -1.56409251000000     -0.92141208000000      1.37528645000000
  C   -1.53154076000000     -2.03655584000000      2.24072734000000
  C   -1.19051458000000     -1.90293319000000      3.57576232000000
  C   -0.97535565000000     -0.61695794000000      4.02884621000000
  C   -0.90666748000000      0.47232695000000      3.14512872000000
  C   -1.11950997000000      0.42846249000000      1.74806961000000
  H   -0.90331911000000     -0.48288549000000      5.10061978000000
  H   -0.75389971000000      1.41893118000000      3.62483205000000
  H   -1.84954718000000     -3.02681795000000      1.88858420000000
  H   -1.22610845000000     -2.74919043000000      4.25915903000000
  H   -0.81849888000000      1.48054940000000      1.08989609000000
  C   -2.28901994000000     -1.12249648000000      0.08560214000000
  H   -3.16446451000000     -0.47597356000000      0.13566221000000
  H   -2.65006044000000     -2.14911293000000     -0.06505269000000
  O   1.78344292000000      0.04782609000000     -1.48082632000000
  C   2.18896033000000     -0.77839849000000     -2.39522038000000
  O   1.63298881000000     -1.75207536000000     -2.86645153000000
  C   3.54695107000000     -0.39855409000000     -2.97506179000000
  H   4.00843467000000     -1.29327001000000     -3.42650610000000
  H   4.20574090000000      0.03938675000000     -2.21800594000000
  H   3.39060110000000      0.34781418000000     -3.76932993000000
