38
Coordinates from ORCA-job 7_29_orca
  Pd  0.29428894000000      0.22801909000000     -0.12696333000000
  O   1.60668751000000      1.42710837000000      0.71213381000000
  C   1.37452261000000      2.68037928000000      0.53692100000000
  O   0.23018423000000      3.12706823000000      0.28177976000000
  C   2.56493408000000      3.59275789000000      0.66540398000000
  H   2.27110980000000      4.56062467000000      1.07815175000000
  H   2.98800972000000      3.76665290000000     -0.33018927000000
  H   3.35593858000000      3.15068464000000      1.27875172000000
  N   -1.40103379000000     -0.72227713000000     -1.03105251000000
  C   -1.16883190000000     -1.90650307000000     -1.87144246000000
  H   -0.52743099000000     -1.65382154000000     -2.71059537000000
  H   -2.13634066000000     -2.29607884000000     -2.23065844000000
  H   -0.67170014000000     -2.67721934000000     -1.28357799000000
  C   -2.02663827000000      0.32276777000000     -1.84380360000000
  H   -2.17085952000000      1.21747667000000     -1.24222034000000
  H   -3.00058170000000     -0.02751152000000     -2.21129807000000
  H   -1.37155137000000      0.55930432000000     -2.68071915000000
  C   -1.55487030000000     -0.90490053000000      1.36307648000000
  C   -1.56529509000000     -2.01427025000000      2.23453377000000
  C   -1.23757086000000     -1.88345575000000      3.57583413000000
  C   -0.97241342000000     -0.60109613000000      4.01434977000000
  C   -0.84415936000000      0.48469066000000      3.12424327000000
  C   -1.05741242000000      0.40469877000000      1.73461946000000
  H   -0.88028120000000     -0.46890772000000      5.08816792000000
  H   -0.66635360000000      1.43549677000000      3.59647847000000
  H   -1.90313734000000     -2.99139427000000      1.88165679000000
  H   -1.26213804000000     -2.73006424000000      4.25959613000000
  H   -0.76987641000000      1.24500478000000      1.09590745000000
  C   -2.28988620000000     -1.10362073000000      0.07890728000000
  H   -3.16657323000000     -0.45719085000000      0.11542597000000
  H   -2.66390006000000     -2.12749200000000     -0.06852309000000
  O   1.78159206000000      0.05475194000000     -1.48597027000000
  C   2.19050011000000     -0.77540962000000     -2.38209185000000
  O   1.62624173000000     -1.76348904000000     -2.81090038000000
  C   3.52854994000000     -0.37015975000000     -2.97761369000000
  H   3.96866135000000     -1.25713890000000     -3.43208449000000
  H   4.19744071000000      0.06285185000000     -2.22830378000000
  H   3.35018337000000      0.36959091000000     -3.76747349000000
