38
Coordinates from ORCA-job 7_2_orca
  Pd  0.43395438000000      0.13164986000000     -0.23953722000000
  O   1.98784616000000      1.33012180000000      0.62946379000000
  C   1.72168560000000      2.59836266000000      0.33463808000000
  O   0.69420939000000      2.91004869000000     -0.16046734000000
  C   2.79518265000000      3.63740837000000      0.64055860000000
  H   2.34489283000000      4.54081458000000      1.06417924000000
  H   3.25419758000000      3.94250989000000     -0.30084968000000
  H   3.56783805000000      3.27873653000000      1.29998098000000
  N   -1.36718738000000     -0.78705132000000     -0.98228996000000
  C   -1.20080242000000     -1.99469737000000     -1.79526231000000
  H   -0.61430770000000     -1.82574413000000     -2.67973268000000
  H   -2.15103914000000     -2.36940849000000     -2.20368752000000
  H   -0.72025193000000     -2.75694192000000     -1.20481437000000
  C   -1.99649317000000      0.19899240000000     -1.86858819000000
  H   -2.09982471000000      1.14766625000000     -1.37676462000000
  H   -2.98717305000000     -0.14180820000000     -2.19323773000000
  H   -1.40485597000000      0.34800902000000     -2.76642383000000
  C   -1.60542306000000     -1.10699280000000      1.45214328000000
  C   -1.58580365000000     -2.20754998000000      2.34738670000000
  C   -1.32596193000000     -2.03566193000000      3.69202614000000
  C   -0.99113093000000     -0.79101174000000      4.17781203000000
  C   -1.16538915000000      0.32751467000000      3.35391773000000
  C   -1.42376622000000      0.14191786000000      2.01199240000000
  H   -0.77979873000000     -0.65451687000000      5.23567849000000
  H   -1.11341988000000      1.28358302000000      3.84191126000000
  H   -2.10452266000000     -3.11692814000000      2.08941622000000
  H   -1.49955197000000     -2.85202671000000      4.39098827000000
  H   -1.69827071000000      3.59964569000000      1.20091038000000
  C   -2.31112201000000     -1.14107234000000      0.13716111000000
  H   -3.16850872000000     -0.45331392000000      0.17911761000000
  H   -2.80636168000000     -2.11257795000000      0.02345219000000
  O   1.66499416000000      0.27851752000000     -1.81321853000000
  C   2.30699459000000     -0.63961818000000     -2.48080264000000
  O   1.84986424000000     -1.70899804000000     -2.66330325000000
  C   3.61656002000000     -0.30457963000000     -3.19930185000000
  H   4.09481819000000     -1.17797727000000     -3.66070534000000
  H   4.33844420000000      0.08096874000000     -2.50416266000000
  H   3.44895219000000      0.40181625000000     -4.01015660000000
