38
Coordinates from ORCA-job 7_5_orca
  Pd  0.46634365000000      0.22299273000000     -0.19171405000000
  O   1.97133378000000      1.26126596000000      0.62724202000000
  C   1.66861253000000      2.60866985000000      0.32255921000000
  O   0.65542232000000      2.92178275000000     -0.17585383000000
  C   2.79633082000000      3.62819720000000      0.64008084000000
  H   2.32708476000000      4.52873227000000      1.05950737000000
  H   3.24581651000000      3.93966878000000     -0.30463870000000
  H   3.57285285000000      3.28318437000000      1.30459977000000
  N   -1.41140893000000     -0.81743796000000     -1.04655463000000
  C   -1.19257145000000     -2.01094761000000     -1.84674474000000
  H   -0.59821201000000     -1.77617558000000     -2.69703068000000
  H   -2.16795965000000     -2.34089206000000     -2.18779197000000
  H   -0.71071910000000     -2.76237076000000     -1.23986806000000
  C   -2.02167761000000      0.23931944000000     -1.86441003000000
  H   -2.11930824000000      1.17330514000000     -1.33823558000000
  H   -2.99677571000000     -0.13055004000000     -2.17387575000000
  H   -1.40711386000000      0.37717967000000     -2.74937082000000
  C   -1.65863196000000     -1.06404143000000      1.48102424000000
  C   -1.59303758000000     -2.18639419000000      2.34704928000000
  C   -1.27044700000000     -2.03454197000000      3.67284649000000
  C   -1.04294537000000     -0.77664699000000      4.17755823000000
  C   -1.16051841000000      0.35239113000000      3.36038093000000
  C   -1.39110803000000      0.13695433000000      2.04571504000000
  H   -0.78864316000000     -0.64155720000000      5.22937969000000
  H   -1.15478664000000      1.30279414000000      3.83079413000000
  H   -2.00530530000000     -3.14166865000000      2.04031396000000
  H   -1.42280910000000     -2.85972997000000      4.36917785000000
  H   -1.71888710000000      3.53520228000000      1.22098595000000
  C   -2.29278875000000     -1.15881564000000      0.15916385000000
  H   -3.14357882000000     -0.47275081000000      0.16882924000000
  H   -2.74920704000000     -2.13716883000000     -0.00920948000000
  O   1.72248633000000      0.28918054000000     -1.76089478000000
  C   2.25870265000000     -0.65826660000000     -2.52733136000000
  O   1.79117642000000     -1.72101641000000     -2.72769338000000
  C   3.63991745000000     -0.31221613000000     -3.15744913000000
  H   4.04513624000000     -1.23539377000000     -3.60418905000000
  H   4.36122222000000      0.06508320000000     -2.47113829000000
  H   3.49376273000000      0.37145675000000     -3.98578154000000
