38
Coordinates from ORCA-job 7_7_orca
  Pd  0.46357437000000      0.21526583000000     -0.19588476000000
  O   1.97388459000000      1.26652894000000      0.62778765000000
  C   1.66943784000000      2.60877766000000      0.32192677000000
  O   0.66166156000000      2.91997790000000     -0.17320645000000
  C   2.79703942000000      3.62936441000000      0.64020581000000
  H   2.32849461000000      4.53004013000000      1.05992101000000
  H   3.24645793000000      3.94005949000000     -0.30430918000000
  H   3.57227418000000      3.28300630000000      1.30408046000000
  N   -1.40837346000000     -0.81583903000000     -1.04303588000000
  C   -1.19274406000000     -2.00949893000000     -1.84284968000000
  H   -0.60037153000000     -1.78028441000000     -2.69518681000000
  H   -2.16624454000000     -2.34274327000000     -2.18913204000000
  H   -0.71163664000000     -2.76153749000000     -1.23704129000000
  C   -2.01964515000000      0.23686276000000     -1.86443093000000
  H   -2.11770681000000      1.17083438000000     -1.34168888000000
  H   -2.99563818000000     -0.13170429000000     -2.17520513000000
  H   -1.40707080000000      0.37469280000000     -2.75071162000000
  C   -1.65403513000000     -1.06628019000000      1.47809121000000
  C   -1.59146136000000     -2.18825164000000      2.34754211000000
  C   -1.27470573000000     -2.03456708000000      3.67406164000000
  C   -1.03868488000000     -0.77831680000000      4.17713496000000
  C   -1.16149832000000      0.35070137000000      3.35874841000000
  C   -1.39447429000000      0.13607617000000      2.04337025000000
  H   -0.78772202000000     -0.64267273000000      5.23015094000000
  H   -1.15192429000000      1.30032505000000      3.83177054000000
  H   -2.01369168000000     -3.13962208000000      2.04481542000000
  H   -1.42946845000000     -2.85901288000000      4.37118668000000
  H   -1.71751692000000      3.54156136000000      1.21933423000000
  C   -2.29387117000000     -1.15765392000000      0.15925230000000
  H   -3.14590902000000     -0.47141830000000      0.16984185000000
  H   -2.75417917000000     -2.13507656000000     -0.00649540000000
  O   1.71698977000000      0.28743855000000     -1.76427427000000
  C   2.26400393000000     -0.65350873000000     -2.52384667000000
  O   1.79516328000000     -1.72130682000000     -2.72280082000000
  C   3.63911562000000     -0.31100754000000     -3.16010090000000
  H   4.04952756000000     -1.23111108000000     -3.60908404000000
  H   4.35877108000000      0.06547105000000     -2.47451768000000
  H   3.49006050000000      0.37332649000000     -3.98779573000000
