9
Coordinates from ORCA-job 5_1_orca
  Pt  -0.66135612000000     -0.78869889000000      0.43982495000000
  Cl  -0.17537680000000     -0.35916451000000      2.65705975000000
  Cl  -2.58519289000000     -2.04371144000000      1.12056125000000
  Cl  -1.37696822000000     -1.16583932000000     -1.75869553000000
  C   0.90983663000000      0.88444021000000     -0.50984018000000
  H   1.41940337000000      1.65376269000000      0.13047909000000
  H   1.04121406000000     -0.34712214000000      0.18048074000000
  H   1.47061934000000      0.72791947000000     -1.39930589000000
  H   -0.04322229000000      1.43967046000000     -0.85951664000000
