9
Coordinates from ORCA-job 5_3_orca
  Pt  -0.67189056000000     -0.78873415000000      0.43875851000000
  Cl  -0.17157737000000     -0.35567781000000      2.65772019000000
  Cl  -2.57261404000000     -2.03530930000000      1.11771363000000
  Cl  -1.37092982000000     -1.16635219000000     -1.75950799000000
  C   0.89464477000000      0.88711724000000     -0.48986407000000
  H   1.41673357000000      1.63899663000000      0.13013721000000
  H   1.02893818000000     -0.32527406000000      0.16090242000000
  H   1.47464399000000      0.72297170000000     -1.40633194000000
  H   -0.02920735000000      1.42315077000000     -0.84842702000000
