9
Coordinates from ORCA-job 5_7_orca
  Pt  -0.72420414000000     -0.78754911000000      0.43724309000000
  Cl  -0.13207132000000     -0.32240059000000      2.64293896000000
  Cl  -2.48278774000000     -1.97438535000000      1.10205039000000
  Cl  -1.30281492000000     -1.16925188000000     -1.77878012000000
  C   0.88292579000000      0.88076273000000     -0.48640404000000
  H   1.40716995000000      1.53286236000000      0.18076321000000
  H   0.92942513000000     -0.16358854000000      0.05042716000000
  H   1.44624645000000      0.66736511000000     -1.37057969000000
  H   -0.02835129000000      1.33541248000000     -0.77376082000000
