39
Coordinates from ORCA-job 5_0_orca
  Ir  0.47802420000000     -0.74307468000000      0.81941848000000
  C   -0.08779005000000     -2.75904278000000      1.52589259000000
  C   0.63497153000000     -2.08532134000000      2.55799363000000
  C   1.96778409000000     -2.21383242000000      0.67194155000000
  C   0.72845801000000     -2.84727817000000      0.38196619000000
  C   1.90774838000000     -1.81793230000000      2.03681529000000
  N   -1.00888080000000     -0.00589191000000     -0.42418121000000
  C   -2.42251530000000      0.02236323000000      0.00652522000000
  C   -2.89144170000000      1.40092069000000      0.42857685000000
  H   -3.91833083000000      1.39835235000000      0.79413136000000
  H   -2.81533074000000      2.11869799000000     -0.38868857000000
  H   -2.33058187000000      1.78114057000000      1.27669485000000
  C   -3.42360090000000     -0.55054528000000     -0.98341828000000
  H   -2.47242008000000     -0.60117670000000      0.89848058000000
  H   -4.40081867000000     -0.67188463000000     -0.52205210000000
  H   -3.57777961000000      0.08949958000000     -1.85456363000000
  H   -3.11233192000000     -1.53575426000000     -1.33454240000000
  C   -0.74030715000000      0.26768017000000     -1.64572845000000
  C   0.54509223000000      0.23286401000000     -2.27097413000000
  H   -1.54605728000000      0.55876622000000     -2.31517533000000
  C   1.75099792000000     -0.02084905000000     -1.67957579000000
  C   2.83977050000000     -0.01260394000000     -2.57303155000000
  S   0.74035422000000      0.15904638000000     -3.98067199000000
  C   2.41890721000000     -0.00839577000000     -3.87093330000000
  H   2.25552986000000      1.10390123000000     -0.80663075000000
  H   3.89224417000000     -0.03646768000000     -2.32748033000000
  H   3.03238656000000     -0.11660664000000     -4.75234559000000
  H   -0.92472757000000     -3.41984887000000      1.70847967000000
  H   0.29784343000000     -1.99448715000000      3.57884861000000
  H   2.75080597000000     -1.44316799000000      2.59800776000000
  O   1.80323128000000      1.81567829000000      0.66448597000000
  O   0.15371741000000      1.09425076000000      1.81168722000000
  C   0.86747013000000      2.05361076000000      1.48442339000000
  C   0.80444935000000      3.40469929000000      2.08976860000000
  H   0.84045869000000      4.16415356000000      1.31037848000000
  H   1.65962921000000      3.57846570000000      2.74425922000000
  H   -0.10486616000000      3.50875434000000      2.67336426000000
  H   2.88935206000000     -2.39318687000000      0.13935112000000
  H   0.51855617000000     -3.47547863000000     -0.47149197000000
