39
Coordinates from ORCA-job 5_2_orca
  Ir  0.48245694000000     -0.71542594000000      0.83613672000000
  C   -0.08229231000000     -2.77349565000000      1.51849187000000
  C   0.63210187000000     -2.09690261000000      2.54504991000000
  C   1.97766579000000     -2.26570159000000      0.70812703000000
  C   0.74533349000000     -2.86188627000000      0.36954093000000
  C   1.92630192000000     -1.80290325000000      2.05594612000000
  N   -1.01175427000000     -0.02383061000000     -0.44636311000000
  C   -2.44835077000000      0.02376496000000      0.02708823000000
  C   -2.88321969000000      1.41531251000000      0.44741986000000
  H   -3.92027701000000      1.38424025000000      0.78853019000000
  H   -2.81562079000000      2.11928460000000     -0.37888579000000
  H   -2.31529927000000      1.77488967000000      1.28554341000000
  C   -3.41799534000000     -0.55734718000000     -0.99918394000000
  H   -2.46895064000000     -0.61379310000000      0.89815939000000
  H   -4.39825331000000     -0.66778004000000     -0.51798552000000
  H   -3.57966760000000      0.09621807000000     -1.85277653000000
  H   -3.11645848000000     -1.53560924000000     -1.34476683000000
  C   -0.74959905000000      0.28228650000000     -1.66687246000000
  C   0.55274418000000      0.20078396000000     -2.27419623000000
  H   -1.55946063000000      0.55998820000000     -2.31449621000000
  C   1.82653957000000      0.13511021000000     -1.58271051000000
  C   2.83545480000000     -0.04749374000000     -2.58210353000000
  S   0.72160859000000      0.15884933000000     -3.99209676000000
  C   2.41509860000000     -0.01084230000000     -3.87787747000000
  H   2.17541668000000      0.99049337000000     -0.82621746000000
  H   3.88454217000000     -0.04409868000000     -2.31669228000000
  H   3.03032974000000     -0.10755655000000     -4.75513352000000
  H   -0.94831981000000     -3.39622682000000      1.68603567000000
  H   0.28052038000000     -1.97896835000000      3.56898403000000
  H   2.74496760000000     -1.42559317000000      2.61633241000000
  O   1.85898727000000      1.83572854000000      0.61095522000000
  O   0.09415787000000      1.04924356000000      1.83604198000000
  C   0.92560742000000      2.05178172000000      1.46715285000000
  C   0.79004646000000      3.40738373000000      2.09097013000000
  H   0.83924431000000      4.16638679000000      1.30875904000000
  H   1.66084909000000      3.57554593000000      2.73653654000000
  H   -0.10764507000000      3.51746406000000      2.67570843000000
  H   2.89228447000000     -2.35618000000000      0.13667766000000
  H   0.53051584000000     -3.46428842000000     -0.48667423000000
