39
Coordinates from ORCA-job 5_4_orca
  Ir  0.47287794000000     -0.72691915000000      0.86637894000000
  C   -0.07241504000000     -2.78672835000000      1.49383143000000
  C   0.62528815000000     -2.09977235000000      2.54347055000000
  C   2.01259498000000     -2.30968127000000      0.74999117000000
  C   0.77769154000000     -2.88119818000000      0.37222454000000
  C   1.91996284000000     -1.79717837000000      2.07947834000000
  N   -1.02692721000000     -0.03967356000000     -0.46561326000000
  C   -2.44883661000000      0.01983659000000      0.02278186000000
  C   -2.88097730000000      1.41146476000000      0.46967312000000
  H   -3.92122556000000      1.36551238000000      0.78888041000000
  H   -2.81285247000000      2.12303971000000     -0.35495633000000
  H   -2.28696892000000      1.76392262000000      1.31397023000000
  C   -3.42765686000000     -0.55118973000000     -0.99761312000000
  H   -2.46752068000000     -0.64027606000000      0.90143240000000
  H   -4.39256829000000     -0.66287862000000     -0.52019369000000
  H   -3.58375171000000      0.11289588000000     -1.85227416000000
  H   -3.12168911000000     -1.53786447000000     -1.36758076000000
  C   -0.74043312000000      0.28159323000000     -1.67720035000000
  C   0.60058819000000      0.20006851000000     -2.21804184000000
  H   -1.58602061000000      0.56666940000000     -2.32682267000000
  C   1.83393848000000      0.29590232000000     -1.63352098000000
  C   2.83528248000000     -0.05205663000000     -2.56276379000000
  S   0.71579789000000      0.14144269000000     -3.96587645000000
  C   2.40383522000000     -0.03177648000000     -3.86256140000000
  H   2.07012577000000      0.83135211000000     -0.83418530000000
  H   3.87895318000000     -0.06220739000000     -2.30810592000000
  H   3.02663128000000     -0.09564959000000     -4.75611575000000
  H   -0.98698659000000     -3.35525417000000      1.63638372000000
  H   0.24142306000000     -1.95513563000000      3.53839315000000
  H   2.73753124000000     -1.39057243000000      2.66215087000000
  O   1.86793467000000      1.86171879000000      0.61400895000000
  O   0.14886004000000      1.08820016000000      1.79479667000000
  C   0.93867563000000      2.00573974000000      1.45574412000000
  C   0.79919919000000      3.38325828000000      2.07380224000000
  H   0.83584547000000      4.16860442000000      1.30529102000000
  H   1.65929321000000      3.57568008000000      2.72040954000000
  H   -0.11310622000000      3.52275498000000      2.67566805000000
  H   2.90321874000000     -2.29657494000000      0.14482786000000
  H   0.56341010000000     -3.44886048000000     -0.52285018000000
