39
Coordinates from ORCA-job 5_6_orca
  Ir  0.45708910000000     -0.75477517000000      0.89316388000000
  C   -0.06882833000000     -2.79244840000000      1.47578436000000
  C   0.61899340000000     -2.10092069000000      2.53956874000000
  C   2.04066930000000     -2.32500459000000      0.77856488000000
  C   0.80722669000000     -2.90132595000000      0.37853528000000
  C   1.91986348000000     -1.79980978000000      2.10029200000000
  N   -1.03242525000000     -0.05210774000000     -0.46991237000000
  C   -2.44269940000000      0.00834280000000      0.01977784000000
  C   -2.87070682000000      1.40314938000000      0.48662346000000
  H   -3.92008145000000      1.35174809000000      0.79144337000000
  H   -2.80931542000000      2.12656129000000     -0.33151647000000
  H   -2.26796992000000      1.75461970000000      1.33190745000000
  C   -3.42877131000000     -0.54829893000000     -1.00235357000000
  H   -2.46633781000000     -0.65659145000000      0.89658895000000
  H   -4.39464995000000     -0.66058831000000     -0.51993730000000
  H   -3.58669240000000      0.12476438000000     -1.84965166000000
  H   -3.12794539000000     -1.53215436000000     -1.38437495000000
  C   -0.74077059000000      0.28222947000000     -1.67059948000000
  C   0.57013356000000      0.22546717000000     -2.22239325000000
  H   -1.58585091000000      0.56805732000000     -2.33372388000000
  C   1.83331726000000      0.33862983000000     -1.74058699000000
  C   2.85581790000000     -0.02485765000000     -2.57571487000000
  S   0.71379074000000      0.11223569000000     -3.93729780000000
  C   2.40160423000000     -0.05896355000000     -3.85815101000000
  H   2.01202108000000      0.75268216000000     -0.73408410000000
  H   3.88180004000000     -0.07690954000000     -2.29917979000000
  H   3.01425796000000     -0.09108748000000     -4.74727291000000
  H   -1.02205233000000     -3.30641156000000      1.58833248000000
  H   0.20489064000000     -1.92944597000000      3.51707952000000
  H   2.72736855000000     -1.35887136000000      2.69756098000000
  O   1.86617636000000      1.86955863000000      0.63334255000000
  O   0.16830226000000      1.07070914000000      1.77358516000000
  C   0.98549106000000      2.02637304000000      1.42386216000000
  C   0.79575040000000      3.37601816000000      2.06875734000000
  H   0.83158865000000      4.15777935000000      1.30582306000000
  H   1.65640025000000      3.57270826000000      2.70672988000000
  H   -0.10717364000000      3.51955817000000      2.66733251000000
  H   2.91459553000000     -2.24353839000000      0.14955922000000
  H   0.59393618000000     -3.42912898000000     -0.55330464000000
