21
Coordinates from ORCA-job 1_1_orca
  Sc  1.64299890000000     -1.41742100000000     -1.53107195000000
  C   0.46028983000000     -0.70263486000000      0.23047591000000
  N   -0.46774392000000     -1.39736940000000      0.92674777000000
  C   -0.87963907000000     -0.69970610000000      2.02072592000000
  C   -0.21052105000000      0.45901362000000      2.02715436000000
  N   0.59875221000000      0.45006541000000      0.93334814000000
  C   1.50647822000000      1.55146506000000      0.56050263000000
  H   1.81894871000000      2.08780035000000      1.45801561000000
  H   1.00132017000000      2.23709238000000     -0.09696310000000
  H   2.39440391000000      1.16474053000000      0.08698683000000
  C   -0.98675083000000     -2.71266662000000      0.58442015000000
  H   -0.45579114000000     -3.12008579000000     -0.26998932000000
  H   -2.04442879000000     -2.64979944000000      0.33184653000000
  H   -0.85761544000000     -3.39052716000000      1.42303461000000
  H   -1.58954061000000     -1.09950941000000      2.73382276000000
  H   -0.26660159000000      1.29541418000000      2.70194912000000
  C   -0.18167149000000      1.55748526000000     -2.84280005000000
  H   -0.96050283000000      1.26111489000000     -3.60320885000000
  H   -0.36705949000000      2.69017437000000     -2.83878898000000
  H   -0.78455225000000      1.29530319000000     -1.85245204000000
  H   0.62932139000000      1.14094570000000     -2.98338983000000
