21
Coordinates from ORCA-job 1_2_orca
  Sc  1.66972511000000     -1.41927579000000     -1.50517836000000
  C   0.45259296000000     -0.69192561000000      0.23584359000000
  N   -0.46589667000000     -1.39424767000000      0.92390021000000
  C   -0.88696133000000     -0.71093666000000      2.02998139000000
  C   -0.19618034000000      0.45851989000000      2.04970894000000
  N   0.59538538000000      0.45818149000000      0.93028419000000
  C   1.49560787000000      1.55823350000000      0.56591621000000
  H   1.78727300000000      2.10277614000000      1.46081653000000
  H   0.99706967000000      2.23291759000000     -0.11863829000000
  H   2.40120496000000      1.16956178000000      0.10563892000000
  C   -0.99070526000000     -2.70525396000000      0.58221140000000
  H   -0.47382961000000     -3.10119900000000     -0.28955960000000
  H   -2.05251501000000     -2.64571649000000      0.34920353000000
  H   -0.84372587000000     -3.39451900000000      1.40927395000000
  H   -1.57419750000000     -1.10839966000000      2.74293896000000
  H   -0.24940322000000      1.28446569000000      2.72197912000000
  C   -0.26925889000000      1.59665128000000     -2.84442393000000
  H   -0.96644176000000      1.30897607000000     -3.59618710000000
  H   -0.22720197000000      2.65367701000000     -2.86217989000000
  H   -0.74197785000000      1.32388691000000     -1.88392005000000
  H   0.53963305000000      1.02533954000000     -3.00694997000000
