21
Coordinates from ORCA-job 1_3_orca
  Sc  1.67945243000000     -1.41422800000000     -1.49618575000000
  C   0.44869082000000     -0.68359583000000      0.24052690000000
  N   -0.46895218000000     -1.39238429000000      0.92457660000000
  C   -0.87686520000000     -0.71013198000000      2.03414994000000
  C   -0.19299632000000      0.44993099000000      2.05026346000000
  N   0.59817609000000      0.46278222000000      0.93290576000000
  C   1.48637511000000      1.55857449000000      0.57201207000000
  H   1.76696656000000      2.11435750000000      1.46223458000000
  H   0.99556896000000      2.23145804000000     -0.13147334000000
  H   2.40400311000000      1.17390455000000      0.12058324000000
  C   -0.99191787000000     -2.70227425000000      0.57861031000000
  H   -0.48435114000000     -3.08961993000000     -0.30029890000000
  H   -2.05593620000000     -2.64323228000000      0.36003472000000
  H   -0.83360855000000     -3.39671314000000      1.40090591000000
  H   -1.56956369000000     -1.11737464000000      2.75207740000000
  H   -0.23903925000000      1.28140314000000      2.73947354000000
  C   -0.35082855000000      1.60893150000000     -2.82716602000000
  H   -0.98357691000000      1.33397082000000     -3.60700188000000
  H   -0.14557874000000      2.65137967000000     -2.87672770000000
  H   -0.72536569000000      1.34202378000000     -1.90130435000000
  H   0.53984271000000      0.94316089000000     -3.02746209000000
