21
Coordinates from ORCA-job 1_4_orca
  Sc  1.69948733000000     -1.40756107000000     -1.47720842000000
  C   0.44325266000000     -0.67244871000000      0.24355262000000
  N   -0.47195698000000     -1.38749767000000      0.92525305000000
  C   -0.86781347000000     -0.71555227000000      2.04443477000000
  C   -0.18428663000000      0.44728967000000      2.06049806000000
  N   0.59774336000000      0.46723863000000      0.93935264000000
  C   1.47420117000000      1.56344833000000      0.57604403000000
  H   1.73134320000000      2.13407442000000      1.46555466000000
  H   0.99371230000000      2.22643296000000     -0.15202840000000
  H   2.40698629000000      1.18189632000000      0.14682431000000
  C   -0.99421993000000     -2.69693402000000      0.57373618000000
  H   -0.50298980000000     -3.06923329000000     -0.32015237000000
  H   -2.06295593000000     -2.63855230000000      0.37895793000000
  H   -0.81640807000000     -3.40038815000000      1.38576036000000
  H   -1.55840674000000     -1.13053353000000      2.76518569000000
  H   -0.22042925000000      1.27070769000000      2.76541399000000
  C   -0.38378436000000      1.60257590000000     -2.83620207000000
  H   -1.02819280000000      1.37789852000000     -3.63221851000000
  H   -0.00239320000000      2.64531271000000     -2.90170767000000
  H   -0.71329403000000      1.36727747000000     -1.90055405000000
  H   0.46135663000000      0.83802031000000     -3.04957261000000
