21
Coordinates from ORCA-job 1_5_orca
  Sc  1.68456539000000     -1.41252658000000     -1.49134268000000
  C   0.44730299000000     -0.68075105000000      0.24129907000000
  N   -0.46971901000000     -1.39113721000000      0.92474923000000
  C   -0.87455517000000     -0.71151526000000      2.03677466000000
  C   -0.19077358000000      0.44925692000000      2.05287536000000
  N   0.59806566000000      0.46391951000000      0.93455103000000
  C   1.48326829000000      1.55981830000000      0.57304104000000
  H   1.75787538000000      2.11938931000000      1.46308188000000
  H   0.99509513000000      2.23017562000000     -0.13671905000000
  H   2.40476443000000      1.17594408000000      0.12728004000000
  C   -0.99250537000000     -2.70091141000000      0.57736642000000
  H   -0.48910778000000     -3.08441720000000     -0.30536556000000
  H   -2.05772766000000     -2.64203793000000      0.36486398000000
  H   -0.82921894000000     -3.39765101000000      1.39704072000000
  H   -1.56671640000000     -1.12073283000000      2.75542267000000
  H   -0.23428992000000      1.27867363000000      2.74609362000000
  C   -0.35923897000000      1.60730953000000     -2.82947205000000
  H   -0.99496302000000      1.34518130000000     -3.61343724000000
  H   -0.10903737000000      2.64983136000000     -2.88310266000000
  H   -0.72228497000000      1.34846860000000     -1.90111288000000
  H   0.51981284000000      0.91632871000000     -3.03310476000000
