9
Coordinates from ORCA-job 1_0_orca
  Pt  -1.27449670000000     -1.02081387000000      0.64605449000000
  Cl  -0.30720301000000     -0.89432942000000      2.74473915000000
  Cl  -2.78899924000000     -2.59262305000000      1.18416534000000
  Cl  -1.98829124000000     -0.85097114000000     -1.55045412000000
  C   1.25718575000000      1.07674015000000     -0.62247127000000
  H   1.43444372000000      2.14050425000000     -0.47964714000000
  H   1.25902825000000      0.57743770000000      0.43686253000000
  H   2.07563031000000      0.62921536000000     -1.18131827000000
  H   0.33270216000000      0.93483100000000     -1.17792874000000
