9
Coordinates from ORCA-job 1_5_orca
  Pt  -1.27598879000000     -1.02656291000000      0.64224716000000
  Cl  -0.30890669000000     -0.88600869000000      2.73092437000000
  Cl  -2.77548983000000     -2.57183829000000      1.18999284000000
  Cl  -1.97289285000000     -0.86294748000000     -1.54759921000000
  C   1.26548322000000      1.06117458000000     -0.58156916000000
  H   1.43962394000000      2.12490076000000     -0.45968471000000
  H   1.23442572000000      0.58916943000000      0.35021744000000
  H   2.06106492000000      0.63634901000000     -1.18474184000000
  H   0.33255483000000      0.93191434000000     -1.13540518000000
