9
Coordinates from ORCA-job 1_6_orca
  Pt  -1.27400620000000     -1.02487362000000      0.64100405000000
  Cl  -0.30870110000000     -0.88511883000000      2.72851516000000
  Cl  -2.77627014000000     -2.57201893000000      1.19329421000000
  Cl  -1.97150027000000     -0.86484613000000     -1.54819289000000
  C   1.26412132000000      1.07494743000000     -0.61158219000000
  H   1.44162129000000      2.12620587000000     -0.45498918000000
  H   1.23001501000000      0.57534478000000      0.37087162000000
  H   2.06257678000000      0.63555452000000     -1.18553533000000
  H   0.33211676000000      0.92992457000000     -1.12761944000000
