9
Coordinates from ORCA-job 1_7_orca
  Pt  -1.27312092000000     -1.02402524000000      0.64053326000000
  Cl  -0.30833152000000     -0.88497293000000      2.72783957000000
  Cl  -2.77710081000000     -2.57282446000000      1.19511988000000
  Cl  -1.97141373000000     -0.86540706000000     -1.54890540000000
  C   1.26412373000000      1.07361641000000     -0.60894814000000
  H   1.44287145000000      2.13024183000000     -0.45387256000000
  H   1.22923023000000      0.57473957000000      0.37136193000000
  H   2.06586514000000      0.63431342000000     -1.18813090000000
  H   0.32792581000000      0.92892738000000     -1.12854010000000
