9
Coordinates from ORCA-job 1_8_orca
  Pt  -1.27230827000000     -1.02315604000000      0.63952905000000
  Cl  -0.30701011000000     -0.88476559000000      2.72641568000000
  Cl  -2.77843684000000     -2.57428944000000      1.19982626000000
  Cl  -1.97162680000000     -0.86664056000000     -1.55098058000000
  C   1.26472409000000      1.06927953000000     -0.59935903000000
  H   1.44510140000000      2.13648148000000     -0.45245891000000
  H   1.22834131000000      0.57619116000000      0.36862153000000
  H   2.07123104000000      0.63293976000000     -1.19244767000000
  H   0.32028645000000      0.92713650000000     -1.13078518000000
