21
Coordinates from ORCA-job 5_0_orca
  C   -1.36806327000000      0.13219496000000     -0.81955527000000
  C   -2.25426949000000     -0.87631819000000     -1.16179577000000
  C   -2.05249605000000     -2.16952213000000     -0.71224425000000
  C   -0.96468846000000     -2.46380732000000      0.09213506000000
  C   -0.35399675000000     -0.18678702000000      0.05572432000000
  C   -0.10904308000000     -1.46123758000000      0.50859997000000
  H   -1.55885926000000      1.10145689000000     -1.27066814000000
  H   -3.09879365000000     -0.65596479000000     -1.80477594000000
  H   -2.75396438000000     -2.94552347000000     -0.97890287000000
  H   0.70828937000000     -1.75150507000000      1.16230023000000
  H   -0.80705287000000     -3.47972626000000      0.43751963000000
  Pd  1.51551065000000      1.09197172000000     -0.20994556000000
  O   3.52365801000000      1.50024953000000     -0.81776144000000
  O   2.74787316000000     -0.51410657000000     -0.61286374000000
  O   0.33160177000000      2.72890919000000      0.16810525000000
  C   -0.16044861000000      2.81233980000000      1.28236658000000
  O   0.23999441000000      2.01027084000000      2.21273688000000
  H   -1.05551072000000      1.42729545000000      2.98857186000000
  C   3.69934555000000      0.27057308000000     -0.86950330000000
  H   4.66259751000000     -0.16531917000000     -1.16926094000000
  H   -0.89167579000000      3.59454609000000      1.51923352000000
