21
Coordinates from ORCA-job 5_10_orca
  C   -1.42083425000000      0.17430623000000     -0.66330623000000
  C   -2.15956066000000     -0.88952497000000     -1.18390771000000
  C   -1.84469495000000     -2.21133163000000     -0.88999015000000
  C   -0.91381529000000     -2.43574022000000      0.12234046000000
  C   -0.29073108000000     -0.15045455000000      0.08661804000000
  C   -0.15968868000000     -1.40934026000000      0.67422566000000
  H   -1.68105159000000      1.20055348000000     -0.91358377000000
  H   -2.86879109000000     -0.69320474000000     -1.96683668000000
  H   -2.30678789000000     -3.05367844000000     -1.44223449000000
  H   0.58880416000000     -1.58410644000000      1.43959302000000
  H   -0.61236642000000     -3.43906115000000      0.33779198000000
  Pd  1.28975028000000      0.95376578000000     -0.13612795000000
  O   3.32477053000000      1.35927991000000     -1.10305033000000
  O   2.61977923000000     -0.60210644000000     -0.37293549000000
  O   0.39193782000000      2.71821024000000      0.38581223000000
  C   -0.25965863000000      2.86770127000000      1.38429770000000
  O   0.06334783000000      2.01357473000000      2.35906339000000
  H   -0.80261563000000      1.59950657000000      2.54781929000000
  C   3.47952135000000      0.13761149000000     -0.93583057000000
  H   4.36532220000000     -0.35875669000000     -1.34429231000000
  H   -0.82284015000000      3.79128607000000      1.60958481000000
