21
Coordinates from ORCA-job 5_13_orca
  C   -1.38815252000000      0.14558240000000     -0.69386199000000
  C   -2.14871559000000     -0.90344426000000     -1.21203444000000
  C   -1.83303457000000     -2.21143586000000     -0.88642468000000
  C   -0.89287038000000     -2.45678040000000      0.10443005000000
  C   -0.27022836000000     -0.12677446000000      0.10240362000000
  C   -0.13731016000000     -1.41053675000000      0.62697828000000
  H   -1.64221012000000      1.19071461000000     -0.89452720000000
  H   -2.88717088000000     -0.68520599000000     -1.96877115000000
  H   -2.22235749000000     -3.02288668000000     -1.47312261000000
  H   0.59832448000000     -1.56459446000000      1.42109717000000
  H   -0.62731076000000     -3.46689381000000      0.38493969000000
  Pd  1.33211826000000      0.95505653000000     -0.12999187000000
  O   3.25935203000000      1.32206748000000     -1.08138557000000
  O   2.57877686000000     -0.62371604000000     -0.38569792000000
  O   0.32730208000000      2.77776397000000      0.32946545000000
  C   -0.13788842000000      2.93286092000000      1.42318890000000
  O   -0.02961304000000      2.05011074000000      2.41655675000000
  H   -0.83944173000000      1.58534626000000      2.61527732000000
  C   3.44336587000000      0.09857011000000     -0.96329551000000
  H   4.33701278000000     -0.39268168000000     -1.36565932000000
  H   -0.85417595000000      3.78744577000000      1.62866520000000
