21
Coordinates from ORCA-job 5_3_orca
  C   -1.43492299000000      0.13975209000000     -0.72796128000000
  C   -2.21660736000000     -0.89207140000000     -1.20170598000000
  C   -1.95564909000000     -2.17814882000000     -0.79256654000000
  C   -0.93053174000000     -2.47066246000000      0.09061376000000
  C   -0.29513225000000     -0.06039595000000      0.14705191000000
  C   -0.16599259000000     -1.44734088000000      0.60174780000000
  H   -1.63235833000000      1.12557645000000     -1.13345990000000
  H   -3.00691660000000     -0.67000689000000     -1.88479617000000
  H   -2.58155440000000     -2.97182353000000     -1.14163399000000
  H   0.63598809000000     -1.70255964000000      1.27834581000000
  H   -0.71429348000000     -3.47580968000000      0.38052859000000
  Pd  1.37291994000000      0.99435751000000     -0.15230282000000
  O   3.46978116000000      1.45913774000000     -0.94292085000000
  O   2.69436718000000     -0.51767926000000     -0.49398253000000
  O   0.34800689000000      2.78547487000000      0.16123376000000
  C   -0.11185883000000      2.84116610000000      1.29313153000000
  O   0.06744726000000      1.94935187000000      2.34479374000000
  H   -0.89518045000000      1.48025674000000      2.80455650000000
  C   3.62474501000000      0.21863827000000     -0.92570420000000
  H   4.56869559000000     -0.24317271000000     -1.23683230000000
  H   -0.84182682000000      3.63512809000000      1.53065455000000
