21
Coordinates from ORCA-job 5_5_orca
  C   -1.45314481000000      0.15608522000000     -0.66264674000000
  C   -2.18180195000000     -0.89603562000000     -1.21482717000000
  C   -1.89476290000000     -2.19076865000000     -0.84531010000000
  C   -0.90730925000000     -2.45902687000000      0.08872194000000
  C   -0.31216718000000     -0.03775132000000      0.20060187000000
  C   -0.19103585000000     -1.41483379000000      0.65607203000000
  H   -1.68234344000000      1.14244812000000     -1.04592223000000
  H   -2.95161623000000     -0.67815697000000     -1.93973250000000
  H   -2.47083315000000     -2.99202162000000     -1.24965591000000
  H   0.58945775000000     -1.67337555000000      1.35570943000000
  H   -0.65410620000000     -3.47806838000000      0.34620887000000
  Pd  1.30988397000000      0.96210581000000     -0.11877483000000
  O   3.42780563000000      1.42662986000000     -1.02572269000000
  O   2.66441312000000     -0.52716512000000     -0.42340208000000
  O   0.35912230000000      2.80443269000000      0.18335164000000
  C   -0.10363467000000      2.84584896000000      1.31327601000000
  O   -0.02739942000000      1.93018997000000      2.38792131000000
  H   -0.79381310000000      1.51790927000000      2.68544571000000
  C   3.56798623000000      0.19033780000000     -0.94870864000000
  H   4.50580831000000     -0.29498924000000     -1.28296314000000
  H   -0.80270597000000      3.66405596000000      1.53835274000000
