21
Coordinates from ORCA-job 5_7_orca
  C   -1.42097684000000      0.17378679000000     -0.63135344000000
  C   -2.16472034000000     -0.88188703000000     -1.19271685000000
  C   -1.87503571000000     -2.20225614000000     -0.86511800000000
  C   -0.90685980000000     -2.43306949000000      0.11002068000000
  C   -0.32473768000000     -0.10939156000000      0.15501133000000
  C   -0.18140413000000     -1.37135760000000      0.66417293000000
  H   -1.69058798000000      1.15751100000000     -1.00410275000000
  H   -2.93039795000000     -0.68455803000000     -1.96147685000000
  H   -2.42947679000000     -3.02497979000000     -1.31722434000000
  H   0.58139527000000     -1.64862400000000      1.38357708000000
  H   -0.63483409000000     -3.47540234000000      0.33617581000000
  Pd  1.27936583000000      0.95441501000000     -0.12316711000000
  O   3.40997733000000      1.41060825000000     -1.05473317000000
  O   2.65545698000000     -0.55521051000000     -0.39724067000000
  O   0.36980018000000      2.77178451000000      0.29786892000000
  C   -0.19150626000000      2.81170108000000      1.35998915000000
  O   0.01119725000000      1.99858015000000      2.32091960000000
  H   -0.78260638000000      1.55311772000000      2.61448083000000
  C   3.52902214000000      0.18221850000000     -0.94914253000000
  H   4.46655022000000     -0.31545022000000     -1.30145215000000
  H   -0.77652888000000      3.68380018000000      1.55232407000000
