38
Coordinates from ORCA-job 2_0_orca
  C   -2.65074840000000     -0.30232264000000      0.88454175000000
  C   -2.04193668000000      0.90041172000000      1.27334220000000
  C   -3.94634167000000     -0.59367094000000      1.30925331000000
  C   -4.72199821000000      0.40947037000000      1.87346616000000
  C   -4.10680750000000      1.56971839000000      2.30790899000000
  C   -2.73781202000000      1.72261448000000      2.15554109000000
  H   -2.43619039000000     -1.31068156000000     -0.43166200000000
  H   -4.43269689000000     -1.52374271000000      1.03941894000000
  H   -2.26803420000000      2.61005324000000      2.56561605000000
  H   -5.76781539000000      0.22147223000000      2.08270640000000
  H   -4.68184384000000      2.30837923000000      2.85202974000000
  C   -0.70309939000000      1.34381215000000      0.75905523000000
  C   0.44210226000000      0.55347226000000      1.38835353000000
  H   -0.53237673000000      2.41574906000000      0.91489370000000
  H   -0.73131247000000      1.27931327000000     -0.33026848000000
  C   1.69773038000000      0.62282885000000      0.55935832000000
  H   0.15970954000000     -0.49219106000000      1.53495770000000
  H   0.62426171000000      0.93783156000000      2.39799344000000
  C   1.86244256000000     -0.16214244000000     -0.59272647000000
  C   3.00392227000000      0.03284774000000     -1.36615557000000
  C   3.94657581000000      1.00010204000000     -1.03691893000000
  C   2.75072269000000      1.42963647000000      0.98952061000000
  C   3.80131817000000      1.73095865000000      0.13313817000000
  H   3.16449110000000     -0.56392319000000     -2.25505481000000
  H   4.78893218000000      1.18153880000000     -1.69460336000000
  H   2.63992822000000      1.98028750000000      1.91882731000000
  H   4.49003378000000      2.53381547000000      0.36766493000000
  Pd  0.54704916000000     -1.52793005000000     -1.12254481000000
  Br  -1.16457769000000     -3.61295562000000     -1.61014446000000
  P   1.19895452000000     -2.96256174000000      0.35815019000000
  H   0.29514486000000     -3.35243235000000      1.35548917000000
  C   0.70379007000000     -0.91897306000000     -3.97612514000000
  O   1.66274968000000     -1.64854329000000     -4.13640407000000
  O   -0.21384430000000     -0.91976635000000     -3.10128559000000
  O   0.34616130000000      0.00262058000000     -4.90933076000000
  H   2.31021861000000     -2.67122028000000      1.17134913000000
  H   1.63993424000000     -4.22078252000000     -0.07826991000000
  H   1.06127138000000     -0.00308959000000     -5.55105969000000
