38
Coordinates from ORCA-job 2_5_orca
  C   -2.67832035000000     -0.23509421000000      0.62535692000000
  C   -2.06091786000000      0.80020832000000      1.19329733000000
  C   -3.91833071000000     -0.57254842000000      1.03569539000000
  C   -4.69362986000000      0.37299058000000      1.77416026000000
  C   -4.15822182000000      1.54304892000000      2.24067681000000
  C   -2.77122855000000      1.68454469000000      2.02758240000000
  H   -2.37311307000000     -0.86038692000000     -0.14301581000000
  H   -4.35269235000000     -1.54294187000000      0.92031345000000
  H   -2.33526031000000      2.57232865000000      2.55918223000000
  H   -5.77956203000000      0.25025271000000      1.76914950000000
  H   -4.78275590000000      2.34771020000000      2.67009627000000
  C   -0.63073714000000      1.35039841000000      0.91943316000000
  C   0.52045167000000      0.51972592000000      1.49655900000000
  H   -0.50970517000000      2.40579137000000      1.26923815000000
  H   -0.60001530000000      1.40227402000000     -0.17359167000000
  C   1.76163616000000      0.55909826000000      0.63029956000000
  H   0.16114728000000     -0.50192532000000      1.59182621000000
  H   0.73206356000000      0.88778615000000      2.50306089000000
  C   1.79692864000000     -0.16146525000000     -0.60077118000000
  C   2.94346029000000      0.06935158000000     -1.37220826000000
  C   3.90652435000000      1.03142014000000     -1.06036434000000
  C   2.75422795000000      1.49598254000000      0.98158266000000
  C   3.82389982000000      1.73764217000000      0.13680466000000
  H   3.06499637000000     -0.51592779000000     -2.27970018000000
  H   4.70598906000000      1.24245243000000     -1.75612789000000
  H   2.75382015000000      1.92586689000000      1.98099160000000
  H   4.53388433000000      2.51621290000000      0.37599366000000
  Pd  0.40536392000000     -1.68971460000000     -1.17931467000000
  Br  -1.22049242000000     -3.63990807000000     -1.32405128000000
  P   1.26099423000000     -2.95483694000000      0.32451274000000
  H   0.46092304000000     -3.43264163000000      1.38249696000000
  C   0.61501120000000     -1.04736590000000     -3.96822462000000
  O   1.61125363000000     -1.59085739000000     -4.15798129000000
  O   -0.26649823000000     -1.16464328000000     -3.02033246000000
  O   0.21203364000000     -0.00274436000000     -4.77767813000000
  H   2.46124006000000     -2.70002324000000      1.06820146000000
  H   1.65681469000000     -4.19190616000000     -0.23177041000000
  H   0.98105735000000      0.10153885000000     -5.43485740000000
