30
Coordinates from ORCA-job 1_0_orca
  Lu  0.15178620000000     -0.40548017000000      0.28409167000000
  C   0.55413395000000      0.45685866000000      2.68232532000000
  C   1.71083886000000     -0.23998380000000      2.29116652000000
  C   2.34262417000000      0.50395916000000      1.28220752000000
  C   1.56138821000000      1.63691537000000      1.01297506000000
  C   0.47915995000000      1.62016358000000      1.90828685000000
  H   1.78865694000000      2.41551847000000      0.30104404000000
  H   -0.25326333000000      2.40173794000000      2.03254290000000
  H   -0.11920546000000      0.18208453000000      3.47760552000000
  H   2.05123508000000     -1.17195835000000      2.71723958000000
  H   3.26257811000000      0.23979040000000      0.78654033000000
  C   0.63711091000000     -0.16306304000000     -2.25678729000000
  C   -0.51451164000000     -0.96629476000000     -2.19166845000000
  C   1.19860709000000     -2.14004073000000     -1.28158374000000
  C   1.70375893000000     -0.90437103000000     -1.72121436000000
  H   0.70668446000000      0.81229670000000     -2.71388703000000
  C   -0.18010954000000     -2.17489500000000     -1.56846621000000
  H   -1.48507166000000     -0.74624206000000     -2.60592585000000
  H   2.73063969000000     -0.58057187000000     -1.65988618000000
  H   1.76051192000000     -2.94068552000000     -0.82336482000000
  H   -0.85579068000000     -2.99775012000000     -1.39500933000000
  C   -2.02683861000000     -1.31420443000000      1.12650530000000
  H   -2.38017828000000     -0.94278849000000      2.09241227000000
  H   -2.08364384000000     -2.41006295000000      1.19407658000000
  H   -2.79977490000000     -1.06630755000000      0.39005932000000
  C   -1.91782595000000      2.23250017000000     -1.11920242000000
  H   -2.21886313000000      1.12872378000000     -0.11470136000000
  H   -0.93548721000000      2.67241665000000     -1.27586441000000
  H   -2.59484305000000      3.01814535000000     -0.78022382000000
  H   -2.27431719000000      1.84361133000000     -2.07130770000000
