30
Coordinates from ORCA-job 1_10_orca
  Lu  0.01363379000000     -0.07865812000000      0.05800173000000
  C   0.37972116000000      0.97529442000000      2.42270683000000
  C   1.31100204000000     -0.07545725000000      2.20549447000000
  C   2.28658390000000      0.39586117000000      1.28592259000000
  C   1.94014999000000      1.72134862000000      0.90621198000000
  C   0.77080179000000      2.08045039000000      1.63318293000000
  H   2.58742209000000      2.39440933000000      0.34063045000000
  H   0.28265468000000      3.04337660000000      1.57536810000000
  H   -0.42865970000000      0.96658302000000      3.14346144000000
  H   1.31302470000000     -1.03172172000000      2.70297337000000
  H   3.18449536000000     -0.13391749000000      1.02881888000000
  C   1.04068191000000     -0.05432391000000     -2.51592178000000
  C   -0.25873663000000     -0.61956951000000     -2.59389322000000
  C   0.99284242000000     -1.96059038000000     -1.23140862000000
  C   1.82814392000000     -0.90197201000000     -1.68902652000000
  H   1.42574182000000      0.76849482000000     -3.11059542000000
  C   -0.28408056000000     -1.77714118000000     -1.80234926000000
  H   -1.07230272000000     -0.19767907000000     -3.17590371000000
  H   2.88677165000000     -0.85301891000000     -1.56187309000000
  H   1.32165544000000     -2.80150244000000     -0.63879875000000
  H   -1.12792021000000     -2.45656465000000     -1.66789959000000
  C   -2.29613315000000     -1.51052195000000      1.23006023000000
  H   -2.15190451000000     -1.49772106000000      2.34099013000000
  H   -1.96258385000000     -2.54654182000000      0.97561576000000
  H   -3.43275977000000     -1.45120229000000      1.11393316000000
  C   -2.08612066000000      1.50647029000000     -0.56635945000000
  H   -1.91020354000000      0.52436953000000     -0.00282056000000
  H   -1.18551418000000      2.11079650000000     -1.02880863000000
  H   -2.59072149000000      2.16531770000000      0.15102018000000
  H   -2.76361086000000      1.27530467000000     -1.37726596000000
