30
Coordinates from ORCA-job 1_13_orca
  Lu  -0.00185750000000     -0.10600188000000      0.08843435000000
  C   0.39869321000000      0.91433722000000      2.46854378000000
  C   1.36317000000000     -0.09785217000000      2.22190589000000
  C   2.29698896000000      0.40557785000000      1.28648880000000
  C   1.90450217000000      1.71298489000000      0.92692450000000
  C   0.73539829000000      2.03254726000000      1.66227223000000
  H   2.48873519000000      2.40131878000000      0.32374013000000
  H   0.21329234000000      2.97892603000000      1.63136671000000
  H   -0.39429315000000      0.87209795000000      3.19058448000000
  H   1.40335183000000     -1.06127250000000      2.71156876000000
  H   3.21071147000000     -0.09487779000000      0.99550058000000
  C   0.99911463000000     -0.07466208000000     -2.48842273000000
  C   -0.29320174000000     -0.65293312000000     -2.54845109000000
  C   1.02495666000000     -1.98665507000000     -1.23606882000000
  C   1.80932701000000     -0.90531725000000     -1.69669135000000
  H   1.33650570000000      0.78438678000000     -3.06022354000000
  C   -0.28052555000000     -1.84152292000000     -1.77693612000000
  H   -1.12640795000000     -0.26309779000000     -3.11360822000000
  H   2.88136579000000     -0.81824753000000     -1.57258793000000
  H   1.37887262000000     -2.82908466000000     -0.65833963000000
  H   -1.09580486000000     -2.52119110000000     -1.63391886000000
  C   -2.24333385000000     -1.49657218000000      1.21092013000000
  H   -2.18002192000000     -1.43641509000000      2.31135965000000
  H   -1.97722210000000     -2.55270077000000      1.01873756000000
  H   -3.34247370000000     -1.41914993000000      1.01635631000000
  C   -2.07667573000000      1.60930528000000     -0.63132475000000
  H   -1.93169725000000      0.64430544000000     -0.04298700000000
  H   -1.17090397000000      2.15504617000000     -1.03562861000000
  H   -2.60320515000000      2.29187131000000      0.03798422000000
  H   -2.71690353000000      1.34060028000000     -1.46854639000000
