30
Coordinates from ORCA-job 1_14_orca
  Lu  0.09820706000000     -0.06792491000000      0.05612640000000
  C   0.38038800000000      0.97684856000000      2.39538373000000
  C   1.30052394000000     -0.05571297000000      2.19273450000000
  C   2.27030991000000      0.40358827000000      1.28962894000000
  C   1.93055353000000      1.70882884000000      0.90567746000000
  C   0.76572494000000      2.05695179000000      1.60644650000000
  H   2.58277034000000      2.38067501000000      0.35536171000000
  H   0.29099712000000      3.03139934000000      1.57404198000000
  H   -0.44258953000000      0.96294674000000      3.10571613000000
  H   1.30879587000000     -1.01447316000000      2.69142021000000
  H   3.16211195000000     -0.12921917000000      1.01764619000000
  C   1.04114501000000     -0.05552486000000     -2.50402279000000
  C   -0.25222581000000     -0.60472918000000     -2.57194552000000
  C   0.99018682000000     -1.94557359000000     -1.24231994000000
  C   1.81590344000000     -0.90169560000000     -1.69487540000000
  H   1.43333915000000      0.75091491000000     -3.11376586000000
  C   -0.28529360000000     -1.76252464000000     -1.79633593000000
  H   -1.06354354000000     -0.19624066000000     -3.16482810000000
  H   2.87912274000000     -0.84043158000000     -1.55017720000000
  H   1.31367929000000     -2.78109398000000     -0.63703773000000
  H   -1.12780272000000     -2.43563046000000     -1.66767274000000
  C   -2.30899475000000     -1.43128850000000      1.22552560000000
  H   -2.14816382000000     -1.44982315000000      2.31637916000000
  H   -1.98018254000000     -2.44075985000000      0.89886673000000
  H   -3.42484738000000     -1.40543856000000      1.13284332000000
  C   -2.02173088000000      1.44287080000000     -0.54195195000000
  H   -2.01387649000000      0.42813480000000      0.03543833000000
  H   -1.19485108000000      2.05263994000000     -1.00556373000000
  H   -2.53635685000000      2.07392290000000      0.18752136000000
  H   -2.73867558000000      1.23393252000000     -1.35811409000000
