30
Coordinates from ORCA-job 1_6_orca
  Lu  -0.05575382000000     -0.21688585000000      0.18974271000000
  C   0.47897144000000      0.72164849000000      2.60124706000000
  C   1.52866509000000     -0.17888866000000      2.27832051000000
  C   2.34486784000000      0.43117170000000      1.28469590000000
  C   1.78198365000000      1.69642277000000      0.98531197000000
  C   0.61427169000000      1.86977091000000      1.77933007000000
  H   2.16843659000000      2.42338904000000      0.27563214000000
  H   -0.01070633000000      2.76116608000000      1.81500703000000
  H   -0.27979578000000      0.56292049000000      3.36153484000000
  H   1.70068644000000     -1.15164590000000      2.73667856000000
  H   3.28467074000000      0.04017739000000      0.89697759000000
  C   0.84708952000000     -0.12249082000000     -2.41006947000000
  C   -0.40579163000000     -0.79410353000000     -2.39338837000000
  C   1.11032086000000     -2.07994032000000     -1.24919662000000
  C   1.78045961000000     -0.91670171000000     -1.71124021000000
  H   1.04293495000000      0.82880903000000     -2.89302505000000
  C   -0.23353529000000     -2.01416752000000     -1.70315676000000
  H   -1.30462450000000     -0.47671154000000     -2.91201375000000
  H   2.84229408000000     -0.71236205000000     -1.61522449000000
  H   1.56688656000000     -2.91640285000000     -0.72628822000000
  H   -1.00354620000000     -2.75423150000000     -1.52099680000000
  C   -2.07828376000000     -1.48720281000000      1.16261500000000
  H   -2.27400571000000     -1.25244163000000      2.21858085000000
  H   -2.01843509000000     -2.58607838000000      1.17792690000000
  H   -3.06985146000000     -1.32229912000000      0.69784371000000
  C   -2.05360879000000      1.93968849000000     -0.84920527000000
  H   -1.98548622000000      1.07670999000000     -0.19684350000000
  H   -1.15184282000000      2.33918923000000     -1.08678984000000
  H   -2.63334929000000      2.69877295000000     -0.36603672000000
  H   -2.53874080000000      1.59144822000000     -1.73110316000000
