30
Coordinates from ORCA-job 1_7_orca
  Lu  -0.07162050000000     -0.17416934000000      0.15364880000000
  C   0.44952520000000      0.78703005000000      2.56552132000000
  C   1.47422056000000     -0.15931269000000      2.26808865000000
  C   2.33801783000000      0.41654498000000      1.28242819000000
  C   1.83122394000000      1.70887069000000      0.96466662000000
  C   0.65625167000000      1.93707886000000      1.74574147000000
  H   2.27910301000000      2.41929828000000      0.28554624000000
  H   0.06328683000000      2.84250053000000      1.75116940000000
  H   -0.31780089000000      0.67107235000000      3.31360427000000
  H   1.59879985000000     -1.12706001000000      2.73209975000000
  H   3.26771474000000     -0.00898905000000      0.93316131000000
  C   0.90162921000000     -0.10361230000000     -2.44430979000000
  C   -0.37081642000000     -0.74902180000000     -2.45294860000000
  C   1.08023851000000     -2.05684489000000     -1.24056867000000
  C   1.79950199000000     -0.91284426000000     -1.70360050000000
  H   1.14164201000000      0.81977656000000     -2.94830535000000
  C   -0.24886906000000     -1.95884560000000     -1.73105997000000
  H   -1.24673382000000     -0.40210080000000     -2.98602196000000
  H   2.85901367000000     -0.75174163000000     -1.60321428000000
  H   1.50503736000000     -2.89375755000000     -0.70252241000000
  H   -1.03770218000000     -2.67998866000000     -1.55942108000000
  C   -2.12758676000000     -1.50983964000000      1.17777031000000
  H   -2.24201422000000     -1.32827675000000      2.25759507000000
  H   -1.99998718000000     -2.60887201000000      1.14571211000000
  H   -3.15955451000000     -1.36942759000000      0.79989282000000
  C   -2.09173210000000      1.84977451000000     -0.78476916000000
  H   -1.92952347000000      0.94543181000000     -0.14791502000000
  H   -1.13870151000000      2.28592448000000     -1.06930656000000
  H   -2.64786792000000      2.59644486000000     -0.22774859000000
  H   -2.61709400000000      1.50907791000000     -1.65803979000000
