38
Coordinates from ORCA-job 5_11_orca
  C   -2.11887130000000     -0.09785396000000      0.65857487000000
  C   -1.83842207000000      1.10481725000000      1.40013160000000
  C   -3.51076425000000     -0.54192243000000      0.71206956000000
  C   -4.55519237000000      0.27846437000000      1.22152969000000
  C   -4.25641416000000      1.53718221000000      1.78227068000000
  C   -2.89448545000000      1.91132780000000      1.87770232000000
  H   -1.66008328000000     -1.60942451000000     -2.33572195000000
  H   -3.84534534000000     -1.58316650000000      0.53591205000000
  H   -2.55894239000000      2.94189647000000      2.08177136000000
  H   -5.63861527000000     -0.00879900000000      1.11152294000000
  H   -5.05183900000000      2.21216649000000      2.17141164000000
  C   -0.40832467000000      1.67905784000000      1.68390406000000
  C   0.70832622000000      0.54450030000000      1.91341784000000
  H   -0.43573509000000      2.29376951000000      2.69059627000000
  H   -0.15188996000000      2.38251602000000      0.81284853000000
  C   1.79598355000000      0.59463058000000      0.86282238000000
  H   0.26210035000000     -0.48065886000000      1.95142087000000
  H   1.16715766000000      0.70498300000000      2.88392343000000
  C   1.60220799000000     -0.05180093000000     -0.36100573000000
  C   2.61972523000000      0.13484238000000     -1.34078736000000
  C   3.68465480000000      1.03259742000000     -1.12877254000000
  C   2.89398930000000      1.43662487000000      1.09998977000000
  C   3.80965140000000      1.71130139000000      0.09506218000000
  H   2.63282136000000     -0.41572431000000     -2.30110000000000
  H   4.42561381000000      1.24032444000000     -1.90247109000000
  H   2.99736882000000      1.86193912000000      2.09710236000000
  H   4.59813236000000      2.45121540000000      0.26059384000000
  Pd  -0.30472604000000     -1.23994929000000     -0.32479134000000
  Br  -1.74923814000000     -3.42889622000000     -1.20506443000000
  P   1.43081666000000     -2.94643792000000     -0.03393414000000
  H   0.95082103000000     -3.51636874000000      1.17957278000000
  C   0.14156082000000     -1.37307252000000     -3.76755608000000
  O   1.18497490000000     -1.90865349000000     -4.01430713000000
  O   -0.87472083000000     -1.93184310000000     -3.09732515000000
  O   -0.14226040000000     -0.16205798000000     -4.22240500000000
  H   2.82211198000000     -2.80986685000000      0.37395970000000
  H   1.62262145000000     -4.14621901000000     -0.78012039000000
  H   0.63678248000000      0.19512139000000     -4.66418458000000
