38
Coordinates from ORCA-job 5_13_orca
  C   -2.13154189000000     -0.08520938000000      0.74252417000000
  C   -1.83247552000000      1.12321909000000      1.36994387000000
  C   -3.47631487000000     -0.47738333000000      0.72686917000000
  C   -4.49314246000000      0.35544488000000      1.17370205000000
  C   -4.18195674000000      1.57879151000000      1.70899383000000
  C   -2.87058772000000      1.94039295000000      1.75651736000000
  H   -1.48987811000000     -1.82276671000000     -2.42627595000000
  H   -3.76472220000000     -1.44457880000000      0.33763470000000
  H   -2.61704788000000      2.84968039000000      2.23561325000000
  H   -5.52001418000000      0.03754607000000      1.05441138000000
  H   -4.97217322000000      2.21669955000000      2.05648159000000
  C   -0.43645590000000      1.57568915000000      1.71767188000000
  C   0.68442531000000      0.56777379000000      1.93420653000000
  H   -0.48963397000000      2.12168859000000      2.58528822000000
  H   -0.10673324000000      2.29129968000000      1.03544650000000
  C   1.73056810000000      0.64856498000000      0.87506843000000
  H   0.28002773000000     -0.43646173000000      1.97082511000000
  H   1.17674427000000      0.68396470000000      2.90893497000000
  C   1.54723964000000     -0.02492180000000     -0.33662063000000
  C   2.55896087000000      0.15643535000000     -1.31197823000000
  C   3.62416630000000      1.05002455000000     -1.11628860000000
  C   2.87360864000000      1.41214688000000      1.10408196000000
  C   3.75497751000000      1.72982340000000      0.08392612000000
  H   2.57129867000000     -0.36704560000000     -2.26333670000000
  H   4.35940736000000      1.24774622000000     -1.89505724000000
  H   3.00145438000000      1.86691308000000      2.07556325000000
  H   4.56810115000000      2.43360074000000      0.25758642000000
  Pd  -0.16477586000000     -1.34088122000000     -0.36618700000000
  Br  -1.80619352000000     -3.42548324000000     -0.88998902000000
  P   1.42881202000000     -2.94850057000000     -0.04126230000000
  H   1.03025284000000     -3.53784293000000      1.13618461000000
  C   0.11060017000000     -1.31401640000000     -3.73346991000000
  O   1.13796833000000     -1.93549691000000     -4.00887581000000
  O   -0.82318806000000     -1.88798205000000     -3.15785122000000
  O   -0.20585664000000     -0.13524539000000     -4.21599181000000
  H   2.76030239000000     -2.78198364000000      0.30857593000000
  H   1.58738344000000     -4.11209046000000     -0.78129101000000
  H   0.58566737000000      0.18723339000000     -4.62826908000000
