38
Coordinates from ORCA-job 5_14_orca
  C   -2.11461532000000     -0.08935674000000      0.73035488000000
  C   -1.83014274000000      1.10775020000000      1.36725313000000
  C   -3.47238437000000     -0.47505109000000      0.71720585000000
  C   -4.49594448000000      0.35069574000000      1.16755649000000
  C   -4.19145960000000      1.57960300000000      1.70489681000000
  C   -2.86957029000000      1.93414329000000      1.77146748000000
  H   -1.50480115000000     -1.81397095000000     -2.40753033000000
  H   -3.76644245000000     -1.44836344000000      0.33821205000000
  H   -2.60941247000000      2.86943945000000      2.23825035000000
  H   -5.52312434000000      0.04309372000000      1.05103107000000
  H   -4.97289091000000      2.22479488000000      2.05754257000000
  C   -0.43979180000000      1.55819453000000      1.72228119000000
  C   0.68786420000000      0.55779088000000      1.93521846000000
  H   -0.49263650000000      2.13439853000000      2.61147371000000
  H   -0.10301520000000      2.30529118000000      1.01088938000000
  C   1.73662413000000      0.64083966000000      0.87464118000000
  H   0.27888829000000     -0.44287450000000      1.97099934000000
  H   1.17425045000000      0.68654627000000      2.90876126000000
  C   1.54463100000000     -0.02648319000000     -0.33831537000000
  C   2.55841111000000      0.15738029000000     -1.31267012000000
  C   3.62126453000000      1.05482233000000     -1.11680544000000
  C   2.86766030000000      1.42044719000000      1.10170230000000
  C   3.75806344000000      1.72593108000000      0.08764621000000
  H   2.56833487000000     -0.36860086000000     -2.26342071000000
  H   4.35619132000000      1.24879497000000     -1.89607598000000
  H   3.00037970000000      1.86781854000000      2.07912408000000
  H   4.56469262000000      2.43421412000000      0.25735582000000
  Pd  -0.16447732000000     -1.33316409000000     -0.36087379000000
  Br  -1.80151926000000     -3.42219459000000     -0.89153345000000
  P   1.42362212000000     -2.94338566000000     -0.04957689000000
  H   1.02850913000000     -3.54248337000000      1.14474194000000
  C   0.12164852000000     -1.33231152000000     -3.74410160000000
  O   1.15330497000000     -1.92049438000000     -4.01546695000000
  O   -0.84167226000000     -1.91621727000000     -3.14558378000000
  O   -0.20877678000000     -0.12888227000000     -4.21254181000000
  H   2.76833016000000     -2.77946101000000      0.30899099000000
  H   1.58815919000000     -4.11668830000000     -0.78531156000000
  H   0.59142387000000      0.19468163000000     -4.63393333000000
