38
Coordinates from ORCA-job 5_15_orca
  C   -2.07786853000000     -0.10318355000000      0.71281276000000
  C   -1.82148426000000      1.08326466000000      1.36542694000000
  C   -3.44878355000000     -0.44568803000000      0.67954817000000
  C   -4.47499155000000      0.37538912000000      1.11823078000000
  C   -4.17927750000000      1.60233948000000      1.66216903000000
  C   -2.85207043000000      1.93813258000000      1.77591705000000
  H   -1.51452069000000     -1.87724839000000     -2.36501545000000
  H   -3.74412939000000     -1.40258409000000      0.26048535000000
  H   -2.60726515000000      2.87482630000000      2.29487361000000
  H   -5.49768006000000      0.08549610000000      0.99903832000000
  H   -4.94827993000000      2.26014648000000      2.01291665000000
  C   -0.44522793000000      1.50616581000000      1.74714591000000
  C   0.69387250000000      0.53198945000000      1.95291288000000
  H   -0.52271366000000      2.08426006000000      2.65639507000000
  H   -0.08780190000000      2.29532221000000      1.05593862000000
  C   1.72686058000000      0.63715621000000      0.88039611000000
  H   0.28634325000000     -0.46024744000000      1.98143897000000
  H   1.17524376000000      0.67870167000000      2.91874686000000
  C   1.52247990000000     -0.01946535000000     -0.33580894000000
  C   2.53167089000000      0.17444376000000     -1.30507009000000
  C   3.58782476000000      1.07739122000000     -1.11670803000000
  C   2.84526149000000      1.43572541000000      1.10249987000000
  C   3.74124965000000      1.72796282000000      0.09303443000000
  H   2.53601662000000     -0.35243108000000     -2.25321724000000
  H   4.31937791000000      1.26280194000000     -1.89777445000000
  H   2.99896698000000      1.86782191000000      2.08298058000000
  H   4.54063815000000      2.43934056000000      0.25654493000000
  Pd  -0.11830419000000     -1.33979510000000     -0.36406733000000
  Br  -1.79957214000000     -3.41465880000000     -0.77576754000000
  P   1.41647532000000     -2.93801740000000     -0.06906497000000
  H   1.06160139000000     -3.56222617000000      1.14742386000000
  C   0.12728726000000     -1.36034575000000     -3.76016191000000
  O   1.17788228000000     -1.88142544000000     -4.03493514000000
  O   -0.84261006000000     -1.98812144000000     -3.14857772000000
  O   -0.23080663000000     -0.12713351000000     -4.19514024000000
  H   2.77111243000000     -2.76303733000000      0.27706159000000
  H   1.57734712000000     -4.11711312000000     -0.80164912000000
  H   0.56584186000000      0.21100381000000     -4.62355455000000
