38
Coordinates from ORCA-job 5_16_orca
  C   -2.07355318000000     -0.12286684000000      0.70846284000000
  C   -1.82619693000000      1.07651972000000      1.36088238000000
  C   -3.45013872000000     -0.46072814000000      0.69048030000000
  C   -4.48086852000000      0.35834495000000      1.13960704000000
  C   -4.18481592000000      1.59678215000000      1.67002831000000
  C   -2.85137801000000      1.94129133000000      1.78882958000000
  H   -1.48952673000000     -1.86036448000000     -2.34257138000000
  H   -3.75028652000000     -1.41052053000000      0.27032863000000
  H   -2.60797466000000      2.87841162000000      2.30934852000000
  H   -5.50918537000000      0.06592454000000      1.03649335000000
  H   -4.95444894000000      2.26005543000000      2.02512482000000
  C   -0.44134356000000      1.52023873000000      1.71906970000000
  C   0.69017872000000      0.52782270000000      1.94457984000000
  H   -0.52291301000000      2.12459672000000      2.63325508000000
  H   -0.08141754000000      2.28597552000000      0.99653174000000
  C   1.72680797000000      0.63037486000000      0.87657167000000
  H   0.27356319000000     -0.46042502000000      1.97568924000000
  H   1.15930764000000      0.69184905000000      2.91393718000000
  C   1.52428864000000     -0.02798402000000     -0.33876740000000
  C   2.53431629000000      0.16573032000000     -1.30653352000000
  C   3.58903033000000      1.06955888000000     -1.11496969000000
  C   2.83736166000000      1.44063185000000      1.09756561000000
  C   3.74659256000000      1.71445783000000      0.09357296000000
  H   2.53744504000000     -0.36066655000000     -2.25095852000000
  H   4.32261535000000      1.24946605000000     -1.89689342000000
  H   2.98997524000000      1.87579201000000      2.07877961000000
  H   4.54800756000000      2.42313614000000      0.25836982000000
  Pd  -0.10102037000000     -1.34077475000000     -0.36765049000000
  Br  -1.81075635000000     -3.39074835000000     -0.77114253000000
  P   1.40918183000000     -2.93658654000000     -0.06388724000000
  H   1.04436873000000     -3.56266593000000      1.15735121000000
  C   0.12424971000000     -1.35520322000000     -3.76625722000000
  O   1.19908779000000     -1.86465821000000     -4.04080479000000
  O   -0.85394240000000     -1.98468213000000     -3.13897304000000
  O   -0.20927257000000     -0.10872080000000     -4.20788132000000
  H   2.76500459000000     -2.75516615000000      0.29758925000000
  H   1.57750025000000     -4.11879625000000     -0.79406129000000
  H   0.58925578000000      0.22201106000000     -4.65209415000000
