38
Coordinates from ORCA-job 5_17_orca
  C   -2.06999964000000     -0.15545494000000      0.69342736000000
  C   -1.83074841000000      1.06806792000000      1.36021318000000
  C   -3.45040286000000     -0.48934214000000      0.69474812000000
  C   -4.48556426000000      0.33764792000000      1.17034667000000
  C   -4.18439425000000      1.59386719000000      1.68340104000000
  C   -2.84874597000000      1.94075812000000      1.82191529000000
  H   -1.45935314000000     -1.84450973000000     -2.25526224000000
  H   -3.76819383000000     -1.42203645000000      0.27623920000000
  H   -2.60535760000000      2.87014580000000      2.34440789000000
  H   -5.53596734000000      0.03756738000000      1.09723554000000
  H   -4.96368966000000      2.27071219000000      2.04065775000000
  C   -0.42883604000000      1.56526428000000      1.66877906000000
  C   0.68072649000000      0.51742691000000      1.93016117000000
  H   -0.52378066000000      2.18867583000000      2.58093860000000
  H   -0.07582433000000      2.24927558000000      0.88581712000000
  C   1.72454481000000      0.61405409000000      0.87263338000000
  H   0.24730859000000     -0.47844514000000      1.96629842000000
  H   1.12665130000000      0.71197188000000      2.90603644000000
  C   1.53539239000000     -0.04505599000000     -0.34414631000000
  C   2.53418867000000      0.15434449000000     -1.31142033000000
  C   3.58746945000000      1.05454504000000     -1.11643621000000
  C   2.81892572000000      1.44951499000000      1.09022052000000
  C   3.74893601000000      1.69282540000000      0.09760242000000
  H   2.53584244000000     -0.37655062000000     -2.25086850000000
  H   4.32154252000000      1.22844851000000     -1.89628097000000
  H   2.96574546000000      1.89080290000000      2.07030121000000
  H   4.55786120000000      2.39443617000000      0.26360608000000
  Pd  -0.06889485000000     -1.33334911000000     -0.38288166000000
  Br  -1.82847877000000     -3.33473360000000     -0.74135627000000
  P   1.40576608000000     -2.94635687000000     -0.04059655000000
  H   1.01630045000000     -3.56334591000000      1.17397570000000
  C   0.15019562000000     -1.35343367000000     -3.78612029000000
  O   1.21357492000000     -1.80259610000000     -4.05104532000000
  O   -0.84052364000000     -1.97791344000000     -3.13623721000000
  O   -0.16314647000000     -0.09285125000000     -4.23047243000000
  H   2.75230180000000     -2.73588253000000      0.33388537000000
  H   1.57698171000000     -4.12219254000000     -0.78155833000000
  H   0.61842699000000      0.24245915000000     -4.70490124000000
