38
Coordinates from ORCA-job 5_18_orca
  C   -2.06991375000000     -0.16165877000000      0.67006583000000
  C   -1.83043913000000      1.05832705000000      1.36728165000000
  C   -3.45754916000000     -0.50416379000000      0.68366198000000
  C   -4.49340213000000      0.32696482000000      1.18531336000000
  C   -4.19153222000000      1.59276559000000      1.70415763000000
  C   -2.84553857000000      1.91582228000000      1.86998185000000
  H   -1.47131623000000     -1.83533649000000     -2.11902622000000
  H   -3.80272439000000     -1.44681930000000      0.28809505000000
  H   -2.58914119000000      2.86045074000000      2.36695167000000
  H   -5.56401205000000      0.02885871000000      1.13880993000000
  H   -4.96964258000000      2.28762067000000      2.05528101000000
  C   -0.42089697000000      1.60120460000000      1.63174181000000
  C   0.66560882000000      0.50344832000000      1.91630160000000
  H   -0.51342164000000      2.24792306000000      2.53349743000000
  H   -0.08494692000000      2.21066886000000      0.76603714000000
  C   1.73060613000000      0.59077767000000      0.87128388000000
  H   0.22374046000000     -0.50800511000000      1.95623530000000
  H   1.09565734000000      0.72118956000000      2.89660244000000
  C   1.55746976000000     -0.06263845000000     -0.34748708000000
  C   2.53983666000000      0.14747345000000     -1.32523511000000
  C   3.58980943000000      1.04421070000000     -1.11931699000000
  C   2.80228551000000      1.45549541000000      1.08582730000000
  C   3.74821820000000      1.67825163000000      0.10187940000000
  H   2.53764433000000     -0.39418801000000     -2.26131388000000
  H   4.32109758000000      1.21845478000000     -1.89924510000000
  H   2.93479807000000      1.90269532000000      2.06553215000000
  H   4.56106072000000      2.37627031000000      0.27067408000000
  Pd  -0.05745489000000     -1.30683109000000     -0.40542269000000
  Br  -1.83266075000000     -3.27703291000000     -0.73670507000000
  P   1.41240496000000     -2.96166313000000     -0.00831573000000
  H   0.98896109000000     -3.56318423000000      1.19471008000000
  C   0.14544481000000     -1.33303423000000     -3.79318922000000
  O   1.28375819000000     -1.75616179000000     -4.08061861000000
  O   -0.79876326000000     -1.96818668000000     -3.12187109000000
  O   -0.12534578000000     -0.09724032000000     -4.25098703000000
  H   2.75151427000000     -2.72047969000000      0.37101345000000
  H   1.58156551000000     -4.13006664000000     -0.77120696000000
  H   0.63164494000000      0.25734881000000     -4.75295740000000
