38
Coordinates from ORCA-job 5_1_orca
  C   -1.90192448000000      0.00321122000000      0.54728022000000
  C   -1.70522371000000      1.02987972000000      1.48683347000000
  C   -3.26998476000000     -0.11056331000000      0.12903843000000
  C   -4.26212362000000      0.81957392000000      0.43063609000000
  C   -3.96231993000000      1.88335581000000      1.25079444000000
  C   -2.69365321000000      1.98658568000000      1.77453970000000
  H   -2.02315105000000     -2.62142513000000     -2.14582181000000
  H   -3.56428038000000     -0.95431151000000     -0.43491887000000
  H   -2.55003447000000      2.75234925000000      2.47832809000000
  H   -5.26647640000000      0.68403802000000      0.06685571000000
  H   -4.72135530000000      2.60241538000000      1.52051702000000
  C   -0.42929282000000      1.22988262000000      2.30237530000000
  C   0.78846276000000      0.32051335000000      2.16059532000000
  H   -0.73409214000000      1.16495756000000      3.29866332000000
  H   -0.13331965000000      2.20488493000000      2.15853940000000
  C   1.65578981000000      0.66036788000000      0.99717807000000
  H   0.50398124000000     -0.71791977000000      2.13666753000000
  H   1.39004286000000      0.42909009000000      3.07550789000000
  C   1.39995603000000      0.13402573000000     -0.28204252000000
  C   2.30200557000000      0.41666585000000     -1.30269468000000
  C   3.31453367000000      1.36085044000000     -1.12210097000000
  C   2.76615492000000      1.48611469000000      1.17793765000000
  C   3.52625218000000      1.93448839000000      0.10762554000000
  H   2.28274868000000     -0.12367922000000     -2.21942018000000
  H   4.00241617000000      1.57342688000000     -1.94392407000000
  H   3.07429413000000      1.75549263000000      2.18432750000000
  H   4.25765146000000      2.72122207000000      0.24166342000000
  Pd  -0.04386503000000     -1.28901389000000     -0.39768133000000
  Br  -1.58909195000000     -3.61624635000000      0.02044422000000
  P   1.53437995000000     -2.99746449000000     -0.19595609000000
  H   1.53952269000000     -3.68956443000000      1.03029296000000
  C   0.06653639000000     -1.64424706000000     -3.76749193000000
  O   1.26474759000000     -1.71872546000000     -4.19289004000000
  O   -0.60306860000000     -2.58751288000000     -3.22686278000000
  O   -0.60175150000000     -0.46458391000000     -3.90586721000000
  H   2.88332684000000     -2.73426794000000     -0.22346984000000
  H   1.50065786000000     -4.10646873000000     -1.03191959000000
  H   0.00239849000000      0.22240636000000     -4.18638092000000
