38
Coordinates from ORCA-job 5_2_orca
  C   -1.88472299000000     -0.01857428000000      0.50485774000000
  C   -1.78443077000000      0.98724507000000      1.50560389000000
  C   -3.34902602000000     -0.22021381000000      0.30118634000000
  C   -4.35031943000000      0.70476665000000      0.61200241000000
  C   -4.06001047000000      1.78495318000000      1.41819817000000
  C   -2.76568405000000      1.94966840000000      1.81756387000000
  H   -2.00839412000000     -2.28951328000000     -2.15078587000000
  H   -3.64709272000000     -1.14196464000000     -0.14634375000000
  H   -2.54354537000000      2.85220252000000      2.35919246000000
  H   -5.37760348000000      0.52485265000000      0.33277371000000
  H   -4.80319115000000      2.50301967000000      1.70612482000000
  C   -0.41556184000000      1.33798792000000      2.14658969000000
  C   0.76258406000000      0.36196501000000      2.08927528000000
  H   -0.65567413000000      1.45738347000000      3.13745240000000
  H   -0.15676349000000      2.27968906000000      1.78604608000000
  C   1.72647767000000      0.59664016000000      0.96958974000000
  H   0.44684042000000     -0.66218107000000      2.07667349000000
  H   1.32623880000000      0.50476012000000      3.01591622000000
  C   1.47912629000000      0.10112955000000     -0.32305812000000
  C   2.41212983000000      0.33881135000000     -1.33060874000000
  C   3.40425819000000      1.30223640000000     -1.12634871000000
  C   2.76963284000000      1.50685358000000      1.15631714000000
  C   3.63462520000000      1.85238196000000      0.11313550000000
  H   2.38417889000000     -0.20764381000000     -2.23891224000000
  H   4.11585363000000      1.48988428000000     -1.93130588000000
  H   3.05743483000000      1.77327619000000      2.16632185000000
  H   4.33848830000000      2.66562466000000      0.24524410000000
  Pd  -0.16872080000000     -1.24060520000000     -0.35573389000000
  Br  -1.59593281000000     -3.60033445000000     -0.33431632000000
  P   1.53435616000000     -2.99353590000000     -0.16582795000000
  H   1.37357095000000     -3.64819000000000      1.09272450000000
  C   0.09484337000000     -1.64261892000000     -3.81416989000000
  O   1.31364880000000     -1.73100722000000     -4.15853176000000
  O   -0.70264661000000     -2.46132295000000     -3.15495941000000
  O   -0.49408666000000     -0.37309942000000     -3.97575657000000
  H   2.87036909000000     -2.75973278000000     -0.06324234000000
  H   1.53798612000000     -4.12305393000000     -0.96298642000000
  H   0.18308884000000      0.23843442000000     -4.32736981000000
