38
Coordinates from ORCA-job 5_5_orca
  C   -1.90196590000000     -0.01269439000000      0.52468051000000
  C   -1.75593985000000      1.00188556000000      1.49220500000000
  C   -3.32427111000000     -0.19434829000000      0.26134237000000
  C   -4.33056573000000      0.72228025000000      0.57826999000000
  C   -4.03915845000000      1.80822690000000      1.37761932000000
  C   -2.75068835000000      1.95310826000000      1.80755982000000
  H   -2.00642403000000     -2.36517783000000     -2.15271997000000
  H   -3.63131937000000     -1.10394693000000     -0.21130702000000
  H   -2.54343839000000      2.83176582000000      2.38737182000000
  H   -5.35493281000000      0.55618111000000      0.27688479000000
  H   -4.78780587000000      2.52470626000000      1.66630365000000
  C   -0.42297104000000      1.30576200000000      2.17254190000000
  C   0.77097769000000      0.35588297000000      2.10575804000000
  H   -0.67391948000000      1.39770018000000      3.18528985000000
  H   -0.14659219000000      2.27256574000000      1.86179729000000
  C   1.70872830000000      0.61682060000000      0.97143080000000
  H   0.45719056000000     -0.67557330000000      2.09101487000000
  H   1.34053714000000      0.48828898000000      3.02958751000000
  C   1.45680676000000      0.10393688000000     -0.30942398000000
  C   2.38623910000000      0.35803569000000     -1.32032178000000
  C   3.38865025000000      1.31068017000000     -1.12787978000000
  C   2.77359392000000      1.49782966000000      1.16104686000000
  C   3.60639591000000      1.87306310000000      0.11254187000000
  H   2.36196006000000     -0.19074863000000     -2.23784116000000
  H   4.09148090000000      1.50726924000000     -1.93372392000000
  H   3.06075864000000      1.77084192000000      2.17045649000000
  H   4.32261312000000      2.67617942000000      0.24457552000000
  Pd  -0.13408559000000     -1.25341788000000     -0.36736172000000
  Br  -1.59759329000000     -3.59990798000000     -0.25848976000000
  P   1.52544340000000     -2.99110590000000     -0.17060869000000
  H   1.40968607000000     -3.65684990000000      1.07784772000000
  C   0.09341367000000     -1.63324310000000     -3.79990148000000
  O   1.28892548000000     -1.73308773000000     -4.16287461000000
  O   -0.67825475000000     -2.48493149000000     -3.17478460000000
  O   -0.51363389000000     -0.39694006000000     -3.96235572000000
  H   2.87773142000000     -2.75329635000000     -0.09738897000000
  H   1.53001401000000     -4.12049576000000     -0.97941917000000
  H   0.14421648000000      0.23268941000000     -4.29603390000000
