38
Coordinates from ORCA-job 5_7_orca
  C   -1.92766958000000     -0.02379418000000      0.53547618000000
  C   -1.76669169000000      1.00284669000000      1.47532110000000
  C   -3.34925170000000     -0.24971734000000      0.32353598000000
  C   -4.37115310000000      0.65158413000000      0.67513967000000
  C   -4.08252406000000      1.76499343000000      1.44016375000000
  C   -2.77448765000000      1.94275448000000      1.83630978000000
  H   -1.97285936000000     -2.23096520000000     -2.16909586000000
  H   -3.66922639000000     -1.18606943000000     -0.08461916000000
  H   -2.53947029000000      2.86276970000000      2.33011813000000
  H   -5.40429708000000      0.47305806000000      0.40324725000000
  H   -4.83168002000000      2.48052777000000      1.75018696000000
  C   -0.42186709000000      1.36645151000000      2.10275759000000
  C   0.76463138000000      0.37676836000000      2.07146176000000
  H   -0.63583691000000      1.54246948000000      3.12428264000000
  H   -0.15123492000000      2.29900204000000      1.68530274000000
  C   1.72932775000000      0.60610899000000      0.95513649000000
  H   0.42734760000000     -0.65057223000000      2.06850716000000
  H   1.31372893000000      0.52338210000000      3.00715447000000
  C   1.48069153000000      0.07858748000000     -0.31799341000000
  C   2.42643614000000      0.32284834000000     -1.32817823000000
  C   3.43652755000000      1.27263616000000     -1.12658383000000
  C   2.79091498000000      1.49441324000000      1.14872124000000
  C   3.64156584000000      1.84464085000000      0.11232352000000
  H   2.40592419000000     -0.22798026000000     -2.24927302000000
  H   4.14506069000000      1.46782052000000     -1.93040687000000
  H   3.05109248000000      1.78402946000000      2.16294606000000
  H   4.36404271000000      2.64490597000000      0.24694289000000
  Pd  -0.17175752000000     -1.24115581000000     -0.35518788000000
  Br  -1.61332918000000     -3.57738705000000     -0.42231725000000
  P   1.50889742000000     -2.98227894000000     -0.15229524000000
  H   1.33541904000000     -3.63592762000000      1.09903705000000
  C   0.08244013000000     -1.60983894000000     -3.79018680000000
  O   1.29556124000000     -1.75534125000000     -4.14764649000000
  O   -0.70965671000000     -2.40963001000000     -3.15860068000000
  O   -0.45168465000000     -0.36082143000000     -4.00156016000000
  H   2.87757643000000     -2.76307670000000     -0.02308079000000
  H   1.54662832000000     -4.12884207000000     -0.95118660000000
  H   0.22159442000000      0.23002033000000     -4.35479167000000
