38
Coordinates from ORCA-job 5_9_orca
  C   -2.10503728000000     -0.09849582000000      0.63643971000000
  C   -1.84060016000000      1.09174037000000      1.40829018000000
  C   -3.51211282000000     -0.54523278000000      0.70939373000000
  C   -4.56065475000000      0.26916570000000      1.22336475000000
  C   -4.26868807000000      1.53087081000000      1.79426018000000
  C   -2.90354201000000      1.89322704000000      1.89793027000000
  H   -1.68804606000000     -1.56854304000000     -2.31789719000000
  H   -3.85497677000000     -1.60762903000000      0.56657960000000
  H   -2.54565123000000      2.97181042000000      2.06007751000000
  H   -5.65375296000000     -0.01100799000000      1.11625866000000
  H   -5.06064652000000      2.21291155000000      2.18819968000000
  C   -0.40704997000000      1.67984952000000      1.68232682000000
  C   0.71282491000000      0.54034010000000      1.91274739000000
  H   -0.42873061000000      2.32102686000000      2.71189908000000
  H   -0.15838748000000      2.40537126000000      0.77035882000000
  C   1.81048565000000      0.58129924000000      0.86011654000000
  H   0.25972056000000     -0.48864718000000      1.94898871000000
  H   1.16389448000000      0.70927497000000      2.87949591000000
  C   1.60927070000000     -0.05460111000000     -0.36519799000000
  C   2.62896274000000      0.13324452000000     -1.34229391000000
  C   3.69111008000000      1.03222485000000     -1.13400646000000
  C   2.89154238000000      1.44433442000000      1.10101726000000
  C   3.82130259000000      1.70658884000000      0.09994726000000
  H   2.63935024000000     -0.42406542000000     -2.30699569000000
  H   4.43129323000000      1.24005803000000     -1.90243989000000
  H   2.99536722000000      1.86256873000000      2.10079881000000
  H   4.59947113000000      2.45438000000000      0.26033820000000
  Pd  -0.32745173000000     -1.22104500000000     -0.31136746000000
  Br  -1.73864823000000     -3.42964957000000     -1.25789971000000
  P   1.42976085000000     -2.94371047000000     -0.03828759000000
  H   0.93800715000000     -3.51465748000000      1.18874630000000
  C   0.18569880000000     -1.40323041000000     -3.78592255000000
  O   1.16296942000000     -1.89113503000000     -4.00738120000000
  O   -0.89195723000000     -1.94996013000000     -3.08316813000000
  O   -0.14323317000000     -0.16441092000000     -4.21610243000000
  H   2.83241192000000     -2.81286257000000      0.38189161000000
  H   1.62823388000000     -4.15237923000000     -0.78174096000000
  H   0.64958089000000      0.19732104000000     -4.67074410000000
