9
Coordinates from ORCA-job 9_0_orca
  Pt  -0.70087638000000     -0.72970467000000      0.41034702000000
  Cl  -0.08787186000000     -0.22574370000000      2.60786066000000
  Cl  -2.58899707000000     -1.95644263000000      1.11597430000000
  Cl  -1.22179335000000     -1.22788574000000     -1.81793872000000
  C   0.77371276000000      0.96096674000000     -0.49175335000000
  H   1.39089345000000      1.53644520000000      0.19758760000000
  H   1.17702376000000     -0.69395440000000      0.15305193000000
  H   1.33851653000000      0.75464033000000     -1.40032699000000
  H   -0.08060783000000      1.58167635000000     -0.77478749000000
