9
Coordinates from ORCA-job 9_1_orca
  Pt  -0.55778046000000     -0.73107626000000      0.38901606000000
  Cl  -0.11971736000000     -0.25954137000000      2.61935490000000
  Cl  -2.56381076000000     -1.96249076000000      1.11084110000000
  Cl  -1.26318461000000     -1.20676252000000     -1.79395254000000
  C   0.79525474000000      0.91587935000000     -0.48235987000000
  H   1.39207659000000      1.54791923000000      0.18882061000000
  H   1.02105881000000     -0.56578319000000      0.15945329000000
  H   1.36937680000000      0.73206052000000     -1.39463943000000
  H   -0.07397290000000      1.53036346000000     -0.79538736000000
