27
Coordinates from ORCA-job reaction-2-cineb5_optts_Compound_2_IRC_B
  Pd  -2.21791830075239     -1.87753199539747      0.90166212776840
  Cl  -3.50693660543696     -3.62761718019715      0.21926590335486
  Cl  -0.63054972170259     -3.30094547300545      1.86483566100979
  Cl  -3.77559644074521     -0.30999128620087      0.21531124728950
  N   -0.96988117881398     -0.24998687414520      1.37513170903302
  C   -1.33539158456400      0.32497275770196      2.50699042109216
  C   -0.77539550909187      1.50513789087848      2.98900937737876
  C   0.17091641907690      2.12668931588168      2.22295800190101
  C   -0.01047242946203      0.31954305567471      0.60726263180523
  C   0.55093699178813      1.55898036211947      1.00289451769716
  H   0.61609362993295      3.06614145646564      2.52921817747917
  H   -2.13114482360939     -0.15218555001282      3.06066511140842
  H   -1.11778940420003      1.92106052236382      3.92582330095255
  C   0.43126090538774     -0.26099650022055     -0.65302200155659
  C   1.44768352088038      2.26313162318015      0.14394654561899
  C   1.72217886872243      1.79830045801540     -1.08867521964886
  C   1.21264871633217      0.53800453928378     -1.52319743583617
  H   1.86478049640397      3.20080902811426      0.49111951937463
  H   2.36052428196278      2.35728368323777     -1.76217861955862
  C   0.15103500590720     -1.57469234381272     -1.06647773291347
  C   1.53454443212487      0.07198804891377     -2.80838318462946
  C   0.48308745596592     -2.01344986703537     -2.32588265969886
  C   1.14576687173388     -1.17604083865582     -3.22365556109097
  H   2.10378023095245      0.71699801512677     -3.46688422223420
  H   1.37911939866585     -1.52041336998166     -4.22287317562685
  H   -0.27647528142012     -2.29260337231364     -0.38773660900737
  H   0.22567641773503     -3.02638846161292     -2.60414207533419
