30
Coordinates from ORCA-job reaction-7-cineb5_optts_Compound_1
  Lu  0.07016324001950      0.00794820374367     -0.00651261245062
  C   0.23198485821756      1.09785536146364      2.31768873867627
  C   0.97996329212699     -0.09464891274521      2.39054539282565
  C   2.09826439206197      0.03697287987808      1.54331515709584
  C   2.04297474714433      1.31576631761464      0.94729702854794
  C   0.89118867313819      1.97057514871632      1.43021410797574
  H   2.77154128969559      1.73034285783470      0.26559530495186
  H   0.57246773314482      2.96973847036843      1.17019009569042
  H   -0.68807181641496      1.30309271172101      2.84406228751615
  H   0.73764798221347     -0.95671166671320      2.99552470772213
  H   2.87268711663990     -0.70089510475250      1.39116127582138
  C   0.65237310505368      0.05555214768617     -2.51257095741814
  C   -0.50865512161648     -0.73989586960319     -2.41019216904038
  C   1.19649176513230     -1.84151135963629     -1.37005684110375
  C   1.70681526006986     -0.62686672330465     -1.87503647755507
  H   0.72707308837002      1.00771912350020     -3.01869444903688
  C   -0.17164240342275     -1.91242348748055     -1.70942540681371
  H   -1.48095870543776     -0.49956484522322     -2.81353590960308
  H   2.72989911369813     -0.28898831034458     -1.80142235557731
  H   1.76353065986847     -2.60296926095294     -0.85369144763561
  H   -0.84156874512266     -2.72779191765315     -1.48013738438960
  C   -1.93892998256344     -1.12509001282312      0.90985000805047
  H   -2.44461157907970     -0.81926246448325      1.82708371766770
  H   -1.22477401379767     -1.90609085612924      1.21630275833514
  H   -2.66849243440724     -1.62403249347653      0.27081101626280
  C   -1.91472697282103      1.44331797510015     -0.35893542170403
  H   -1.90031149121436      0.15319519008580      0.26582077504142
  H   -1.20391575282661      2.08642441633853     -0.90380356846501
  H   -2.30830422471380      2.05374783707456      0.45474024856277
  H   -2.72526307315633      1.25343464419570     -1.06386761995050
