30
Coordinates from ORCA-job reaction-7-cineb5_optts_Compound_2_IRC_F
  Lu  0.09048395645298      0.23054618586592     -0.12707701890140
  C   0.23436491410379      1.12836501828894      2.29836754697654
  C   0.95451241546940     -0.08615893817013      2.32390539959788
  C   2.09361506267352      0.06485999727209      1.51167765053829
  C   2.07699713345377      1.37082196202448      0.97777579202416
  C   0.93031830553500      2.02924393262446      1.47378580832619
  H   2.82840097014514      1.80016132536984      0.33041660959985
  H   0.62258361828241      3.03767087438795      1.24084939610197
  H   -0.68631617341897      1.33291982865872      2.82476067720731
  H   0.70243750995524     -0.96139462791249      2.90683839670222
  H   2.85563915258340     -0.68204588869090      1.34421981450683
  C   0.67799938874564      0.05280505182495     -2.59266077026725
  C   -0.49165816770029     -0.72117267624860     -2.45366418065406
  C   1.19909350103435     -1.78596947590259     -1.34888783354597
  C   1.72413334937404     -0.60715121287236     -1.91422156373214
  H   0.75609535918767      0.98858061947191     -3.12763393657095
  C   -0.16887020053338     -1.85609410188153     -1.68460001201607
  H   -1.46224854318469     -0.48319107712800     -2.86076827415815
  H   2.75051305013322     -0.27718523057097     -1.84828144705324
  H   1.75522438244151     -2.52929915768183     -0.79591006670717
  H   -0.84012654659701     -2.66659925078344     -1.43721957978235
  C   -2.20853030896711     -1.30207550388562      1.06792140341105
  H   -2.63109350029447     -1.15429980218989      2.05635162459065
  H   -1.23383056445688     -1.78222287278615      1.17905814220139
  H   -2.84262100886357     -1.94528539880902      0.46632504907652
  C   -1.69204994229127      1.68310387891324     -0.52184496413859
  H   -2.18736171079157     -0.32350726221850      0.58175099922428
  H   -1.35013723343219      2.55565529729319     -1.09427789585982
  H   -2.14416612831760      2.09150903542024      0.39017869091218
  H   -2.51574119620415      1.26054923388919     -1.10987726728649
