21
Coordinates from ORCA-job reaction-0-ieip_optts_Compound_2_IRC_F
  C   -1.46632617690441      0.19994470516936     -0.46854709716312
  C   -1.68314286164227     -0.86204115878646     -1.35571091621752
  C   -1.33543464613010     -2.14392260154025     -0.98819140440104
  C   -0.72116798600091     -2.39340783952065      0.24414888849939
  C   -0.89838345478798     -0.04748171875262      0.79336291456376
  C   -0.50523317375749     -1.36091798434981      1.12381823904975
  H   -1.84852312358949      1.18481024717128     -0.70900495421531
  H   -2.16681472002541     -0.68158137440488     -2.30624719523984
  H   -1.55052929175030     -2.97103643222207     -1.65246672125350
  H   -0.05681384294958     -1.54431919211788      2.09070910185259
  H   -0.44074698633986     -3.40347506188477      0.51013329736020
  Pd  0.95705787787480      0.85845957953383     -0.19035969950088
  O   2.93480447397657      1.16688955557586     -0.80971855971592
  O   1.93599308285074     -0.74907329628603     -0.96858160831893
  O   0.48303543120377      2.67944811613103      0.30972951175368
  C   0.12716489366952      3.08994146965024      1.48396040873527
  O   -0.20351250270783      2.43593143382657      2.44681270011556
  H   -0.94341632358526      0.69802641688140      1.58222927749588
  C   2.96641012548192     -0.03940289317098     -1.14495657441271
  H   3.87315479286868     -0.47513934083582     -1.58414491188307
  H   0.14806721007962      4.19463019862079      1.52625895005482
