21
Coordinates from ORCA-job reaction-0-ieip_optts_Compound_1
  C   -1.33825140476632      0.14026762672334     -0.73975878711427
  C   -1.96663611239259     -0.96294358126879     -1.29015934265663
  C   -1.73848971537378     -2.21971112006097     -0.74561665890843
  C   -0.89819812792756     -2.37632170608215      0.35118371409266
  C   -0.46245533177349      0.01251244527052      0.35273467051920
  C   -0.26516361273494     -1.27266404402370      0.88939875965620
  H   -1.53430650321932      1.12335141314175     -1.15233410307905
  H   -2.63074501247374     -0.84990713326064     -2.13667795176677
  H   -2.22424865818831     -3.08631225324239     -1.17560444590588
  H   0.39288237894304     -1.39884921286933      1.74065469773267
  H   -0.73608705977990     -3.35957216753113      0.77228618355285
  Pd  1.34615908991527      1.02503133773299     -0.03061724702772
  O   3.30517186597948      1.36219715006702     -0.78466998484208
  O   2.26320511139987     -0.53701779643303     -0.93281928072598
  O   0.83050417609413      2.77529874711705      0.76968353693581
  C   -0.07763631219805      2.88581358199031      1.62917336367636
  O   -0.86275394142065      1.99742894180814      2.00892251521501
  H   -0.64638035008031      0.95495118993277      1.24920243484410
  C   3.28436365373532      0.17122852261835     -1.16348286630422
  H   4.13977298048580     -0.26839899989317     -1.69331314251239
  H   -0.18017711422394      3.88112705826304      2.08053393461855
