30
Coordinates from ORCA-job reaction-7-dhsgs_optts_Compound_1
  Lu  -0.01685632857405      0.03004147506674      0.04607100104686
  C   0.20596285716121      0.56953766157140      2.54410483313551
  C   1.23998126474043     -0.34377132382671      2.23994746252108
  C   2.15391749104599      0.30410278688927      1.38477000949526
  C   1.67738722659828      1.60851954308478      1.14625543469693
  C   0.47610043499200      1.77353851921910      1.86944344726494
  H   2.16412338140747      2.36058384224370      0.54118382579413
  H   -0.12722600458393      2.66822774975773      1.90095132792423
  H   -0.63942493555681      0.38014041338346      3.18833988809409
  H   1.33526428841395     -1.34873146851597      2.62637106906139
  H   3.06332977357696     -0.12077449511793      0.98659971994816
  C   0.25784925585654     -0.15304000911790     -2.50951906030603
  C   -0.66017492410078     -1.15997936376321     -2.15469128493792
  C   1.36222705714989     -1.69883190163037     -1.24641115791824
  C   1.50748606989291     -0.48121592019084     -1.94575887515778
  H   0.04133353841477      0.71532743179409     -3.11468297635864
  C   0.02254929701146     -2.11725444496158     -1.37698491089512
  H   -1.70327531764792     -1.19298409158550     -2.43118673015119
  H   2.42237462077839      0.08330183030862     -2.05359482834425
  H   2.14652644077009     -2.22975324676060     -0.72713096936848
  H   -0.40337726353436     -3.02252313539877     -0.96831347729924
  C   -2.29295013434769     -0.61257391407812      0.76496835318973
  H   -2.86610995984177     -0.16602111382193      1.57833633068311
  H   -1.77279951209074     -1.47373038279483      1.21671146858558
  H   -2.99710422747747     -1.03331196284813      0.04606014728348
  C   -1.61039041612562      1.81869582354552     -0.59470701892396
  H   -1.92738260363055      0.60153150107743      0.09962689649812
  H   -0.70670341808308      2.34920673143094     -0.93507797110343
  H   -2.10499975392769      2.50724743757607      0.09157502723266
  H   -2.24323819828788      1.71071402746354     -1.47728698169097
