39
Coordinates from ORCA-job 6_0_orca
  Ir  0.49476969000000     -0.75852666000000      0.75909089000000
  C   -0.07336391000000     -2.79914691000000      1.40492599000000
  C   0.49309881000000     -2.09461613000000      2.51486946000000
  C   2.04656044000000     -2.17419421000000      0.79867773000000
  C   0.87305268000000     -2.84981644000000      0.35998723000000
  C   1.81206651000000     -1.79308644000000      2.15152160000000
  N   -1.03500796000000     -0.03507354000000     -0.43928866000000
  C   -2.44153227000000     -0.02131438000000      0.00837470000000
  C   -2.88160665000000      1.33007953000000      0.53659885000000
  H   -3.91062843000000      1.32227166000000      0.89693469000000
  H   -2.79219731000000      2.10238147000000     -0.22777600000000
  H   -2.31426222000000      1.62065066000000      1.41476344000000
  C   -3.46473864000000     -0.50998705000000     -1.00355196000000
  H   -2.49036066000000     -0.70924869000000      0.85240918000000
  H   -4.43726970000000     -0.64754351000000     -0.53701602000000
  H   -3.62285493000000      0.19257337000000     -1.82445300000000
  H   -3.17493220000000     -1.47410176000000     -1.42499001000000
  C   -0.77747149000000      0.25376150000000     -1.66020549000000
  C   0.51060038000000      0.23325174000000     -2.27657501000000
  H   -1.58248585000000      0.54534919000000     -2.32955853000000
  C   1.69006597000000     -0.07265032000000     -1.65637701000000
  C   2.79941028000000     -0.06859998000000     -2.52734663000000
  S   0.74138297000000      0.20667737000000     -3.98221073000000
  C   2.41374459000000      0.01169890000000     -3.83474058000000
  H   2.24933335000000      1.16065226000000     -0.81031894000000
  H   3.84713538000000     -0.11497017000000     -2.26408920000000
  H   3.04133878000000     -0.08307699000000     -4.70788781000000
  H   -0.88949007000000     -3.49664789000000      1.49679314000000
  H   0.04234315000000     -2.00995788000000      3.48688930000000
  H   2.57186902000000     -1.41379745000000      2.81009610000000
  O   1.89663653000000      1.91250187000000      0.55672235000000
  O   0.24837960000000      1.12856916000000      1.68523660000000
  C   0.94206553000000      2.10283457000000      1.37265688000000
  C   0.85309602000000      3.43500837000000      2.01704451000000
  H   0.85829910000000      4.21211868000000      1.25422019000000
  H   1.71442699000000      3.61439196000000      2.66170739000000
  H   -0.04920314000000      3.50496024000000      2.61599960000000
  H   3.02003395000000     -2.28981526000000      0.36058989000000
  H   0.77769581000000     -3.47354093000000     -0.50971912000000
