39
Coordinates from ORCA-job 6_4_orca
  Ir  0.52653106000000     -0.74326912000000      0.75678022000000
  C   -0.05288873000000     -2.84177536000000      1.40059561000000
  C   0.49490858000000     -2.09489883000000      2.49351888000000
  C   2.08119350000000     -2.27345424000000      0.86220602000000
  C   0.89374281000000     -2.87820753000000      0.35690151000000
  C   1.83473851000000     -1.76725286000000      2.16808011000000
  N   -1.05200337000000     -0.06778654000000     -0.48075285000000
  C   -2.46645777000000     -0.02236055000000      0.02479702000000
  C   -2.87196708000000      1.34504066000000      0.56371021000000
  H   -3.91409833000000      1.29940222000000      0.87846237000000
  H   -2.78902110000000      2.10906903000000     -0.21058545000000
  H   -2.27346951000000      1.63048891000000      1.42910132000000
  C   -3.46514070000000     -0.51535350000000     -1.01636559000000
  H   -2.48125846000000     -0.73460743000000      0.86092156000000
  H   -4.42441693000000     -0.64237726000000     -0.53222471000000
  H   -3.62240218000000      0.20232350000000     -1.82666962000000
  H   -3.17682171000000     -1.48172834000000     -1.44702028000000
  C   -0.78504847000000      0.26714792000000     -1.69185070000000
  C   0.55416467000000      0.18948196000000     -2.23170240000000
  H   -1.62424932000000      0.55633286000000     -2.33707436000000
  C   1.77597281000000      0.23424111000000     -1.53742985000000
  C   2.79138746000000     -0.09531885000000     -2.51117462000000
  S   0.71442302000000      0.19658231000000     -3.96436776000000
  C   2.40267799000000     -0.01503057000000     -3.82259924000000
  H   2.02081172000000      0.90156195000000     -0.77625888000000
  H   3.83793676000000     -0.13762608000000     -2.24843000000000
  H   3.03759426000000     -0.06292085000000     -4.71007715000000
  H   -0.96573769000000     -3.42989997000000      1.44419211000000
  H   0.01972624000000     -1.97860507000000      3.45639742000000
  H   2.57859518000000     -1.35537911000000      2.84164691000000
  O   1.95436150000000      1.98589593000000      0.49377856000000
  O   0.24861677000000      1.11032787000000      1.65663351000000
  C   1.03438011000000      2.04574409000000      1.33534097000000
  C   0.84769536000000      3.40152323000000      2.00438067000000
  H   0.85278195000000      4.21079643000000      1.25605197000000
  H   1.70757749000000      3.60677675000000      2.64787988000000
  H   -0.05994844000000      3.51063858000000      2.62040404000000
  H   3.02362009000000     -2.21576807000000      0.34464568000000
  H   0.79290939000000     -3.45152141000000     -0.55070053000000
