9
Coordinates from ORCA-job 4_0_orca
  Pt  -1.07134522000000     -0.92122528000000      0.56673757000000
  Cl  -0.28472867000000     -0.67480348000000      2.75833745000000
  Cl  -2.73866078000000     -2.37604171000000      1.17623836000000
  Cl  -1.73251479000000     -1.03484078000000     -1.67347838000000
  C   1.10093215000000      1.03933770000000     -0.61339493000000
  H   1.45462983000000      1.96439983000000     -0.15945586000000
  H   1.32580825000000      0.08421357000000      0.40724950000000
  H   1.80284591000000      0.69101863000000     -1.36599384000000
  H   0.14303331000000      1.22793498000000     -1.09623292000000
