9
Coordinates from ORCA-job 4_3_orca
  Pt  -1.07436779000000     -0.94054209000000      0.56292407000000
  Cl  -0.27796977000000     -0.62589389000000      2.71430800000000
  Cl  -2.68126161000000     -2.28985239000000      1.16363431000000
  Cl  -1.66094800000000     -1.05068709000000     -1.66570050000000
  C   1.13817660000000      0.87324003000000     -0.43890170000000
  H   1.46182388000000      1.89474024000000     -0.10094344000000
  H   1.19014212000000      0.24161107000000      0.10830672000000
  H   1.74951587000000      0.71139696000000     -1.37587967000000
  H   0.15037593000000      1.18654542000000     -0.96838170000000
