9
Coordinates from ORCA-job 4_6_orca
  Pt  -1.07020962000000     -0.93277343000000      0.55962540000000
  Cl  -0.27793362000000     -0.62758769000000      2.70836190000000
  Cl  -2.69581432000000     -2.30273638000000      1.17169711000000
  Cl  -1.66204974000000     -1.04808796000000     -1.66493320000000
  C   1.12834853000000      0.99019079000000     -0.55884291000000
  H   1.47091374000000      1.88979230000000     -0.08805333000000
  H   1.18359641000000      0.17554592000000      0.18033201000000
  H   1.75884495000000      0.70404987000000     -1.36908025000000
  H   0.15718278000000      1.15261517000000     -0.93987209000000
