9
Coordinates from ORCA-job 4_8_orca
  Pt  -1.06125677000000     -0.92494072000000      0.55461294000000
  Cl  -0.27266705000000     -0.61672620000000      2.70290084000000
  Cl  -2.70715857000000     -2.30467465000000      1.17946269000000
  Cl  -1.65109052000000     -1.05011747000000     -1.67261921000000
  C   1.13208179000000      0.98258026000000     -0.55233223000000
  H   1.48646197000000      1.89535143000000     -0.06445107000000
  H   1.16938378000000      0.16979338000000      0.17520809000000
  H   1.77190636000000      0.70251628000000     -1.39272523000000
  H   0.12075656000000      1.14757909000000     -0.93100111000000
