9
Coordinates from ORCA-job 2_0_orca
  Pt  -1.20311121000000     -0.98909831000000      0.61768373000000
  Cl  -0.30039828000000     -0.82455268000000      2.75422620000000
  Cl  -2.77150082000000     -2.51708730000000      1.18255418000000
  Cl  -1.90600197000000     -0.92030368000000     -1.59716131000000
  C   1.20566033000000      1.06273913000000     -0.62402097000000
  H   1.44184981000000      2.09158450000000     -0.36094709000000
  H   1.28518626000000      0.41845146000000      0.44840090000000
  H   1.98447543000000      0.63985349000000     -1.25307683000000
  H   0.26384045000000      1.03840526000000     -1.16765504000000
