9
Coordinates from ORCA-job 2_2_orca
  Pt  -1.20483534000000     -0.99389891000000      0.61712033000000
  Cl  -0.30148094000000     -0.81803962000000      2.74794732000000
  Cl  -2.76212812000000     -2.50221673000000      1.18200483000000
  Cl  -1.89454610000000     -0.92557782000000     -1.59658833000000
  C   1.21906422000000      1.02470029000000     -0.55414498000000
  H   1.44424940000000      2.08560163000000     -0.35175286000000
  H   1.26851703000000      0.44481673000000      0.37098072000000
  H   1.97642395000000      0.64459962000000     -1.26118576000000
  H   0.25441316000000      1.03937526000000     -1.15437475000000
