9
Coordinates from ORCA-job 2_3_orca
  Pt  -1.21277101000000     -1.00446314000000      0.61550868000000
  Cl  -0.30442362000000     -0.80826344000000      2.72981600000000
  Cl  -2.74472193000000     -2.47609706000000      1.18389806000000
  Cl  -1.87398554000000     -0.93353597000000     -1.59165767000000
  C   1.22168819000000      1.00834356000000     -0.52953562000000
  H   1.44927845000000      2.05426043000000     -0.33083814000000
  H   1.22818176000000      0.47902145000000      0.25885254000000
  H   1.95442266000000      0.65593674000000     -1.25400365000000
  H   0.28108146000000      1.02251851000000     -1.08190084000000
