9
Coordinates from ORCA-job 2_6_orca
  Pt  -1.20271002000000     -0.99616960000000      0.61082590000000
  Cl  -0.30389151000000     -0.80280922000000      2.72560845000000
  Cl  -2.75085741000000     -2.47688793000000      1.19010431000000
  Cl  -1.86620980000000     -0.93794989000000     -1.59541602000000
  C   1.22066423000000      1.04727124000000     -0.59104863000000
  H   1.45650075000000      2.06195470000000     -0.31428959000000
  H   1.22136302000000      0.42929799000000      0.31348746000000
  H   1.95987346000000      0.65236864000000     -1.26555397000000
  H   0.26339486000000      1.02023415000000     -1.07331486000000
