9
Coordinates from ORCA-job 2_8_orca
  Pt  -1.20019655000000     -0.99295200000000      0.60770108000000
  Cl  -0.30191170000000     -0.80107865000000      2.72215594000000
  Cl  -2.75739623000000     -2.48038912000000      1.19795158000000
  Cl  -1.86358646000000     -0.93847375000000     -1.60028433000000
  C   1.22289020000000      1.04325581000000     -0.58435307000000
  H   1.46362977000000      2.07201008000000     -0.30640461000000
  H   1.21716865000000      0.42798918000000      0.31369920000000
  H   1.97076397000000      0.64998298000000     -1.27642661000000
  H   0.24559518000000      1.01632674000000     -1.07350579000000
