21
Coordinates from ORCA-job 1_0_orca
  Sc  1.62705551000000     -1.44155952000000     -1.57660649000000
  C   0.50830413000000     -0.74492076000000      0.24895767000000
  N   -0.45120311000000     -1.41065058000000      0.91647384000000
  C   -0.91068376000000     -0.67507741000000      1.97116611000000
  C   -0.23727059000000      0.49677865000000      1.95014785000000
  N   0.63678869000000      0.42512744000000      0.90338975000000
  C   1.53440229000000      1.50779543000000      0.54806753000000
  H   1.95440657000000      1.96662905000000      1.44017884000000
  H   1.00797593000000      2.26608853000000     -0.02685974000000
  H   2.37003358000000      1.12832900000000     -0.03588220000000
  C   -0.96344321000000     -2.73197987000000      0.60061631000000
  H   -0.35172125000000     -3.19931776000000     -0.16689516000000
  H   -1.98659400000000     -2.66313677000000      0.23759722000000
  H   -0.93503400000000     -3.36070048000000      1.48750812000000
  H   -1.66911779000000     -1.03041030000000      2.64752984000000
  H   -0.30742836000000      1.34808805000000      2.60525333000000
  C   -0.39605441000000      1.63622984000000     -2.73317093000000
  H   -0.79849949000000      1.11205406000000     -3.60088829000000
  H   -0.71099122000000      2.67563333000000     -2.76645130000000
  H   -0.78688935000000      1.18097282000000     -1.82574646000000
  H   0.86598479000000      1.51404531000000     -2.82439487000000
