21
Coordinates from ORCA-job 1_4_orca
  Sc  1.56290489000000     -1.39018234000000     -1.62312740000000
  C   0.49571879000000     -0.72739148000000      0.24668606000000
  N   -0.44876471000000     -1.41034192000000      0.92061659000000
  C   -0.89828434000000     -0.69290866000000      1.99280452000000
  C   -0.22122525000000      0.47774279000000      1.98612136000000
  N   0.62378609000000      0.43686935000000      0.91333114000000
  C   1.51371180000000      1.53130255000000      0.56066265000000
  H   1.89348217000000      2.00781170000000      1.46343413000000
  H   0.98888437000000      2.27198318000000     -0.04203772000000
  H   2.37106536000000      1.14651283000000      0.00947329000000
  C   -0.96933957000000     -2.72629141000000      0.59038925000000
  H   -0.39173739000000     -3.16591532000000     -0.21937834000000
  H   -2.01068193000000     -2.65781750000000      0.27745710000000
  H   -0.89561534000000     -3.37850628000000      1.45804400000000
  H   -1.62422432000000     -1.07434804000000      2.69219022000000
  H   -0.28254229000000      1.32063170000000      2.65363919000000
  C   -0.35731784000000      1.60069712000000     -2.76906465000000
  H   -0.80975002000000      1.09332688000000     -3.60342101000000
  H   -0.58312105000000      2.63609164000000     -2.82209823000000
  H   -0.71785232000000      1.19549589000000     -1.85199885000000
  H   0.76095372000000      1.50568312000000     -2.83383893000000
