21
Coordinates from ORCA-job 1_6_orca
  Sc  1.54435234000000     -1.36891840000000     -1.63636186000000
  C   0.48517263000000     -0.71944349000000      0.24242615000000
  N   -0.44947362000000     -1.40882557000000      0.92318028000000
  C   -0.88816039000000     -0.70005131000000      2.00626135000000
  C   -0.21819648000000      0.47268118000000      1.99827535000000
  N   0.62451257000000      0.43555178000000      0.92211191000000
  C   1.50509792000000      1.53500074000000      0.56435979000000
  H   1.86415168000000      2.01653079000000      1.46969738000000
  H   0.98821005000000      2.27114471000000     -0.04856474000000
  H   2.36670629000000      1.15655193000000      0.01861367000000
  C   -0.96910902000000     -2.72461554000000      0.58843948000000
  H   -0.40432364000000     -3.15301505000000     -0.23661470000000
  H   -2.01391121000000     -2.65305989000000      0.29228258000000
  H   -0.88179194000000     -3.38658275000000      1.44730254000000
  H   -1.61549942000000     -1.08647924000000      2.70084631000000
  H   -0.27007087000000      1.31079142000000      2.67213874000000
  C   -0.36980108000000      1.60083334000000     -2.77743504000000
  H   -0.81821923000000      1.05851603000000     -3.64188044000000
  H   -0.54618031000000      2.67330871000000     -2.84560147000000
  H   -0.69643923000000      1.17788085000000     -1.82019267000000
  H   0.76327818000000      1.49369991000000     -2.83956897000000
