21
Coordinates from ORCA-job 1_8_orca
  Sc  1.54458224000000     -1.36408481000000     -1.63679895000000
  C   0.48342037000000     -0.72047497000000      0.24247953000000
  N   -0.45104938000000     -1.40934756000000      0.92427703000000
  C   -0.88654241000000     -0.70237104000000      2.00818497000000
  C   -0.21384551000000      0.47061990000000      2.00154635000000
  N   0.62032518000000      0.43660849000000      0.92051044000000
  C   1.50394791000000      1.53370473000000      0.56366340000000
  H   1.86090950000000      2.01657596000000      1.47007739000000
  H   0.98661175000000      2.26833018000000     -0.04916398000000
  H   2.36578031000000      1.15876468000000      0.01786652000000
  C   -0.96815523000000     -2.72401890000000      0.58858085000000
  H   -0.40480554000000     -3.15017410000000     -0.23695462000000
  H   -2.01254710000000     -2.65154634000000      0.29430902000000
  H   -0.87936338000000     -3.38790982000000      1.44519981000000
  H   -1.61807451000000     -1.08560628000000      2.69891245000000
  H   -0.26656715000000      1.30964933000000      2.67570960000000
  C   -0.31183341000000      1.58784902000000     -2.79137020000000
  H   -0.80490870000000      1.07419978000000     -3.61238385000000
  H   -0.56215590000000      2.66213689000000     -2.84461396000000
  H   -0.70011715000000      1.18929419000000     -1.83775667000000
  H   0.71504867000000      1.49017612000000     -2.84270256000000
