21
Coordinates from ORCA-job 1_9_orca
  Sc  1.54365875000000     -1.35660256000000     -1.63776635000000
  C   0.48116018000000     -0.72122020000000      0.24246805000000
  N   -0.45179893000000     -1.40969417000000      0.92544749000000
  C   -0.88435586000000     -0.70416173000000      2.01171942000000
  C   -0.20867820000000      0.46671921000000      2.00801114000000
  N   0.61484575000000      0.43754565000000      0.91725476000000
  C   1.50130874000000      1.53355948000000      0.56358749000000
  H   1.85602615000000      2.01782813000000      1.47067871000000
  H   0.98241525000000      2.26490438000000     -0.05075568000000
  H   2.36559800000000      1.16120468000000      0.01831648000000
  C   -0.96788773000000     -2.72349245000000      0.58888357000000
  H   -0.40570610000000     -3.14552247000000     -0.23917878000000
  H   -2.01223207000000     -2.64977226000000      0.29777214000000
  H   -0.87484992000000     -3.39019380000000      1.44186255000000
  H   -1.62081396000000     -1.08541511000000      2.69785703000000
  H   -0.26079413000000      1.30634494000000      2.68129520000000
  C   -0.30761399000000      1.59016267000000     -2.79235282000000
  H   -0.78557300000000      1.09400048000000     -3.57500159000000
  H   -0.57653654000000      2.62865915000000     -2.84423593000000
  H   -0.69800752000000      1.21011532000000     -1.87416308000000
  H   0.71092362000000      1.47870604000000     -2.85231978000000
